<?xml version="1.0" encoding="ISO-8859-1"?>
<febio_spec version="3.0">
	<Module type="solid"/>
	<Globals>
		<Constants>
			<T>0</T>
			<R>0</R>
			<Fc>0</Fc>
		</Constants>
	</Globals>
	<Material>
		<material id="1" name="Material1" type="PeriodicNetwork">
			<netNum>1</netNum>
			<E>1e6</E>
			<v>0.49999</v>
		</material> 
	</Material>
	<Mesh>
		<Nodes name="Object1">
			<node id="1">0,0.015,0</node>
			<node id="2">0,0.02,0</node>
			<node id="3">-0.015,0,0</node>
			<node id="4">-0.02,0,0</node>
			<node id="5">0,0.015,0.02</node>
			<node id="6">0,0.02,0.02</node>
			<node id="7">-0.015,0,0.02</node>
			<node id="8">-0.02,0,0.02</node>
			<node id="9">0,0.02,0.0025</node>
			<node id="10">0,0.02,0.005</node>
			<node id="11">0,0.02,0.0075</node>
			<node id="12">0,0.02,0.01</node>
			<node id="13">0,0.02,0.0125</node>
			<node id="14">0,0.02,0.015</node>
			<node id="15">0,0.02,0.0175</node>
			<node id="16">0,0.019,0</node>
			<node id="17">0,0.018,0</node>
			<node id="18">0,0.017,0</node>
			<node id="19">0,0.016,0</node>
			<node id="20">0,0.015,0.0025</node>
<!-- ... 466 like lines cut -->
		</Nodes>
		<Elements type="hex8" name="Part1">
			<elem id="1">1,19,259,73,20,84,291,192</elem>
			<elem id="2">19,18,260,259,84,83,292,291</elem>
			<elem id="3">18,17,261,260,83,82,293,292</elem>
			<elem id="4">17,16,262,261,82,81,294,293</elem>
			<elem id="5">16,2,31,262,81,9,109,294</elem>
			<elem id="6">73,259,255,72,192,291,295,191</elem>
			<elem id="7">259,260,256,255,291,292,296,295</elem>
			<elem id="8">260,261,257,256,292,293,297,296</elem>
			<elem id="9">261,262,258,257,293,294,298,297</elem>
			<elem id="10">262,31,32,258,294,109,110,298</elem>
			<elem id="11">72,255,251,71,191,295,299,190</elem>
			<elem id="12">255,256,252,251,295,296,300,299</elem>
			<elem id="13">256,257,253,252,296,297,301,300</elem>
			<elem id="14">257,258,254,253,297,298,302,301</elem>
			<elem id="15">258,32,33,254,298,110,111,302</elem>
			<elem id="16">71,251,247,70,190,299,303,189</elem>
			<elem id="17">251,252,248,247,299,300,304,303</elem>
			<elem id="18">252,253,249,248,300,301,305,304</elem>
			<elem id="19">253,254,250,249,301,302,306,305</elem>
			<elem id="20">254,33,34,250,302,111,112,306</elem>
<!-- ... 300 like lines cut -->
		</Elements>
		<Surface name="FixedDisplacement1">
			<quad4 id="1">73,259,19,1</quad4>
			<quad4 id="2">259,260,18,19</quad4>
			<quad4 id="3">260,261,17,18</quad4>
			<quad4 id="4">261,262,16,17</quad4>
			<quad4 id="5">262,31,2,16</quad4>
			<quad4 id="6">72,255,259,73</quad4>
			<quad4 id="7">255,256,260,259</quad4>
			<quad4 id="8">256,257,261,260</quad4>
			<quad4 id="9">257,258,262,261</quad4>
			<quad4 id="10">258,32,31,262</quad4>
			<quad4 id="11">71,251,255,72</quad4>
			<quad4 id="12">251,252,256,255</quad4>
			<quad4 id="13">252,253,257,256</quad4>
			<quad4 id="14">253,254,258,257</quad4>
			<quad4 id="15">254,33,32,258</quad4>
			<quad4 id="16">70,247,251,71</quad4>
			<quad4 id="17">247,248,252,251</quad4>
			<quad4 id="18">248,249,253,252</quad4>
			<quad4 id="19">249,250,254,253</quad4>
			<quad4 id="20">250,34,33,254</quad4>
<!-- ... 20 like lines cut -->
		</Surface>
		<Surface name="FixedDisplacement2">
			<quad4 id="1">55,3,56,161</quad4>
			<quad4 id="2">54,55,161,160</quad4>
			<quad4 id="3">53,54,160,159</quad4>
			<quad4 id="4">52,53,159,158</quad4>
			<quad4 id="5">4,52,158,38</quad4>
			<quad4 id="6">161,56,57,165</quad4>
			<quad4 id="7">160,161,165,164</quad4>
			<quad4 id="8">159,160,164,163</quad4>
			<quad4 id="9">158,159,163,162</quad4>
			<quad4 id="10">38,158,162,39</quad4>
			<quad4 id="11">165,57,58,169</quad4>
			<quad4 id="12">164,165,169,168</quad4>
			<quad4 id="13">163,164,168,167</quad4>
			<quad4 id="14">162,163,167,166</quad4>
			<quad4 id="15">39,162,166,40</quad4>
			<quad4 id="16">169,58,59,173</quad4>
			<quad4 id="17">168,169,173,172</quad4>
			<quad4 id="18">167,168,172,171</quad4>
			<quad4 id="19">166,167,171,170</quad4>
			<quad4 id="20">40,166,170,41</quad4>
<!-- ... 20 like lines cut -->
		</Surface>
		<Surface name="FixedDisplacement3">
			<quad4 id="1">1,19,84,20</quad4>
			<quad4 id="2">19,18,83,84</quad4>
			<quad4 id="3">18,17,82,83</quad4>
			<quad4 id="4">17,16,81,82</quad4>
			<quad4 id="5">16,2,9,81</quad4>
			<quad4 id="6">20,84,88,21</quad4>
			<quad4 id="7">84,83,87,88</quad4>
			<quad4 id="8">83,82,86,87</quad4>
			<quad4 id="9">82,81,85,86</quad4>
			<quad4 id="10">81,9,10,85</quad4>
			<quad4 id="11">21,88,92,22</quad4>
			<quad4 id="12">88,87,91,92</quad4>
			<quad4 id="13">87,86,90,91</quad4>
			<quad4 id="14">86,85,89,90</quad4>
			<quad4 id="15">85,10,11,89</quad4>
			<quad4 id="16">22,92,96,23</quad4>
			<quad4 id="17">92,91,95,96</quad4>
			<quad4 id="18">91,90,94,95</quad4>
			<quad4 id="19">90,89,93,94</quad4>
			<quad4 id="20">89,11,12,93</quad4>
<!-- ... 20 like lines cut -->
		</Surface>
		<Surface name="PrescribedDisplacement1">
			<quad4 id="1">5,27,263,74</quad4>
			<quad4 id="2">27,28,264,263</quad4>
			<quad4 id="3">28,29,265,264</quad4>
			<quad4 id="4">29,30,266,265</quad4>
			<quad4 id="5">30,6,51,266</quad4>
			<quad4 id="6">74,263,267,75</quad4>
			<quad4 id="7">263,264,268,267</quad4>
			<quad4 id="8">264,265,269,268</quad4>
			<quad4 id="9">265,266,270,269</quad4>
			<quad4 id="10">266,51,50,270</quad4>
			<quad4 id="11">75,267,271,76</quad4>
			<quad4 id="12">267,268,272,271</quad4>
			<quad4 id="13">268,269,273,272</quad4>
			<quad4 id="14">269,270,274,273</quad4>
			<quad4 id="15">270,50,49,274</quad4>
			<quad4 id="16">76,271,275,77</quad4>
			<quad4 id="17">271,272,276,275</quad4>
			<quad4 id="18">272,273,277,276</quad4>
			<quad4 id="19">273,274,278,277</quad4>
			<quad4 id="20">274,49,48,278</quad4>
<!-- ... 20 like lines cut -->
		</Surface>
		<Surface name="PressureLoad1">
			<quad4 id="1">73,1,20,192</quad4>
			<quad4 id="2">72,73,192,191</quad4>
			<quad4 id="3">71,72,191,190</quad4>
			<quad4 id="4">70,71,190,189</quad4>
			<quad4 id="5">69,70,189,188</quad4>
			<quad4 id="6">68,69,188,187</quad4>
			<quad4 id="7">67,68,187,186</quad4>
			<quad4 id="8">3,67,186,56</quad4>
			<quad4 id="9">192,20,21,199</quad4>
			<quad4 id="10">191,192,199,198</quad4>
			<quad4 id="11">190,191,198,197</quad4>
			<quad4 id="12">189,190,197,196</quad4>
			<quad4 id="13">188,189,196,195</quad4>
			<quad4 id="14">187,188,195,194</quad4>
			<quad4 id="15">186,187,194,193</quad4>
			<quad4 id="16">56,186,193,57</quad4>
			<quad4 id="17">199,21,22,206</quad4>
			<quad4 id="18">198,199,206,205</quad4>
			<quad4 id="19">197,198,205,204</quad4>
			<quad4 id="20">196,197,204,203</quad4>
<!-- ... 44 like lines cut -->
		</Surface>
	</Mesh>
	<MeshDomains>
		<SolidDomain name="Part1" mat="Material1"/>
	</MeshDomains>
	<MeshData>
		<ElementData var="mat_axis" elem_set="Part1">
			<e lid="1">
				<a>0,0,-1</a>
				<d>-0.976259,0.216606,0</d>
			</e>
			<e lid="2">
				<a>0,0,-1</a>
				<d>-0.980006,0.198969,0</d>
			</e>
			<e lid="3">
				<a>0,0,-1</a>
				<d>-0.983089,0.183127,0</d>
			</e>
			<e lid="4">
				<a>0,0,-1</a>
				<d>-0.985645,0.16883,0</d>
			</e>
			<e lid="5">
				<a>0,0,-1</a>
				<d>-0.987777,0.155871,0</d>
			</e>
			<e lid="6">
				<a>0,0,-1</a>
				<d>-0.999758,0.0219848,0</d>
			</e>
			<e lid="7">
				<a>0,0,-1</a>
				<d>-0.999992,0.00395591,0</d>
			</e>
			<e lid="8">
				<a>0,0,-1</a>
				<d>-0.999926,-0.012183,0</d>
			</e>
			<e lid="9">
				<a>0,0,-1</a>
				<d>-0.999643,-0.0267035,0</d>
			</e>
			<e lid="10">
				<a>0,0,-1</a>
				<d>-0.999206,-0.0398294,0</d>
			</e>
			<e lid="11">
				<a>0,0,-1</a>
				<d>-0.984837,-0.173481,0</d>
			</e>
			<e lid="12">
				<a>0,0,-1</a>
				<d>-0.981549,-0.191209,0</d>
			</e>
			<e lid="13">
				<a>0,0,-1</a>
				<d>-0.978336,-0.207025,0</d>
			</e>
			<e lid="14">
				<a>0,0,-1</a>
				<d>-0.975226,-0.221211,0</d>
			</e>
			<e lid="15">
				<a>0,0,-1</a>
				<d>-0.972237,-0.234,0</d>
			</e>
			<e lid="16">
				<a>0,0,-1</a>
				<d>-0.932069,-0.36228,0</d>
			</e>
			<e lid="17">
				<a>0,0,-1</a>
				<d>-0.925386,-0.379026,0</d>
			</e>
			<e lid="18">
				<a>0,0,-1</a>
				<d>-0.919149,-0.393911,0</d>
			</e>
			<e lid="19">
				<a>0,0,-1</a>
				<d>-0.913331,-0.407218,0</d>
			</e>
			<e lid="20">
				<a>0,0,-1</a>
				<d>-0.907904,-0.419177,0</d>
			</e>
			<e lid="21">
				<a>0,0,-1</a>
				<d>-0.843483,-0.537156,0</d>
			</e>
			<e lid="22">
				<a>0,0,-1</a>
				<d>-0.833661,-0.552277,0</d>
			</e>
			<e lid="23">
				<a>0,0,-1</a>
				<d>-0.824639,-0.565659,0</d>
			</e>
			<e lid="24">
				<a>0,0,-1</a>
				<d>-0.816337,-0.577575,0</d>
			</e>
			<e lid="25">
				<a>0,0,-1</a>
				<d>-0.808682,-0.588246,0</d>
			</e>
			<e lid="26">
				<a>0,0,-1</a>
				<d>-0.722482,-0.69139,0</d>
			</e>
			<e lid="27">
				<a>0,0,-1</a>
				<d>-0.709899,-0.704304,0</d>
			</e>
			<e lid="28">
				<a>0,0,-1</a>
				<d>-0.69844,-0.715669,0</d>
			</e>
			<e lid="29">
				<a>0,0,-1</a>
				<d>-0.687972,-0.725737,0</d>
			</e>
			<e lid="30">
				<a>0,0,-1</a>
				<d>-0.678382,-0.734709,0</d>
			</e>
			<e lid="31">
				<a>0,0,-1</a>
				<d>-0.573716,-0.819055,0</d>
			</e>
			<e lid="32">
				<a>0,0,-1</a>
				<d>-0.558855,-0.829265,0</d>
			</e>
			<e lid="33">
				<a>0,0,-1</a>
				<d>-0.545399,-0.838176,0</d>
			</e>
			<e lid="34">
				<a>0,0,-1</a>
				<d>-0.533169,-0.846009,0</d>
			</e>
			<e lid="35">
				<a>0,0,-1</a>
				<d>-0.522012,-0.852938,0</d>
			</e>
			<e lid="36">
				<a>0,0,-1</a>
				<d>-0.402902,-0.915243,0</d>
			</e>
			<e lid="37">
				<a>0,0,-1</a>
				<d>-0.386335,-0.922358,0</d>
			</e>
			<e lid="38">
				<a>0,0,-1</a>
				<d>-0.371399,-0.928473,0</d>
			</e>
			<e lid="39">
				<a>0,0,-1</a>
				<d>-0.357876,-0.933769,0</d>
			</e>
			<e lid="40">
				<a>0,0,-1</a>
				<d>-0.345582,-0.938388,0</d>
			</e>
			<e lid="41">
				<a>0,0,-1</a>
				<d>-0.976259,0.216606,0</d>
			</e>
			<e lid="42">
				<a>0,0,-1</a>
				<d>-0.980006,0.198969,0</d>
			</e>
			<e lid="43">
				<a>0,0,-1</a>
				<d>-0.983089,0.183127,0</d>
			</e>
			<e lid="44">
				<a>0,0,-1</a>
				<d>-0.985645,0.16883,0</d>
			</e>
			<e lid="45">
				<a>0,0,-1</a>
				<d>-0.987777,0.155871,0</d>
			</e>
			<e lid="46">
				<a>0,0,-1</a>
				<d>-0.999758,0.0219848,0</d>
			</e>
			<e lid="47">
				<a>0,0,-1</a>
				<d>-0.999992,0.00395591,0</d>
			</e>
			<e lid="48">
				<a>0,0,-1</a>
				<d>-0.999926,-0.012183,0</d>
			</e>
			<e lid="49">
				<a>0,0,-1</a>
				<d>-0.999643,-0.0267035,0</d>
			</e>
			<e lid="50">
				<a>0,0,-1</a>
				<d>-0.999206,-0.0398294,0</d>
			</e>
			<e lid="51">
				<a>0,0,-1</a>
				<d>-0.984837,-0.173481,0</d>
			</e>
			<e lid="52">
				<a>0,0,-1</a>
				<d>-0.981549,-0.191209,0</d>
			</e>
			<e lid="53">
				<a>0,0,-1</a>
				<d>-0.978336,-0.207025,0</d>
			</e>
			<e lid="54">
				<a>0,0,-1</a>
				<d>-0.975226,-0.221211,0</d>
			</e>
			<e lid="55">
				<a>0,0,-1</a>
				<d>-0.972237,-0.234,0</d>
			</e>
			<e lid="56">
				<a>0,0,-1</a>
				<d>-0.932069,-0.36228,0</d>
			</e>
			<e lid="57">
				<a>0,0,-1</a>
				<d>-0.925386,-0.379026,0</d>
			</e>
			<e lid="58">
				<a>0,0,-1</a>
				<d>-0.919149,-0.393911,0</d>
			</e>
			<e lid="59">
				<a>0,0,-1</a>
				<d>-0.913331,-0.407218,0</d>
			</e>
			<e lid="60">
				<a>0,0,-1</a>
				<d>-0.907904,-0.419177,0</d>
			</e>
			<e lid="61">
				<a>0,0,-1</a>
				<d>-0.843483,-0.537156,0</d>
			</e>
			<e lid="62">
				<a>0,0,-1</a>
				<d>-0.833661,-0.552277,0</d>
			</e>
			<e lid="63">
				<a>0,0,-1</a>
				<d>-0.824639,-0.565659,0</d>
			</e>
			<e lid="64">
				<a>0,0,-1</a>
				<d>-0.816337,-0.577575,0</d>
			</e>
			<e lid="65">
				<a>0,0,-1</a>
				<d>-0.808682,-0.588246,0</d>
			</e>
			<e lid="66">
				<a>0,0,-1</a>
				<d>-0.722482,-0.69139,0</d>
			</e>
			<e lid="67">
				<a>0,0,-1</a>
				<d>-0.709899,-0.704304,0</d>
			</e>
			<e lid="68">
				<a>0,0,-1</a>
				<d>-0.69844,-0.715669,0</d>
			</e>
			<e lid="69">
				<a>0,0,-1</a>
				<d>-0.687972,-0.725737,0</d>
			</e>
			<e lid="70">
				<a>0,0,-1</a>
				<d>-0.678382,-0.734709,0</d>
			</e>
			<e lid="71">
				<a>0,0,-1</a>
				<d>-0.573716,-0.819055,0</d>
			</e>
			<e lid="72">
				<a>0,0,-1</a>
				<d>-0.558855,-0.829265,0</d>
			</e>
			<e lid="73">
				<a>0,0,-1</a>
				<d>-0.545399,-0.838176,0</d>
			</e>
			<e lid="74">
				<a>0,0,-1</a>
				<d>-0.533169,-0.846009,0</d>
			</e>
			<e lid="75">
				<a>0,0,-1</a>
				<d>-0.522012,-0.852938,0</d>
			</e>
			<e lid="76">
				<a>0,0,-1</a>
				<d>-0.402902,-0.915243,0</d>
			</e>
			<e lid="77">
				<a>0,0,-1</a>
				<d>-0.386335,-0.922358,0</d>
			</e>
			<e lid="78">
				<a>0,0,-1</a>
				<d>-0.371399,-0.928473,0</d>
			</e>
			<e lid="79">
				<a>0,0,-1</a>
				<d>-0.357876,-0.933769,0</d>
			</e>
			<e lid="80">
				<a>0,0,-1</a>
				<d>-0.345582,-0.938388,0</d>
			</e>
			<e lid="81">
				<a>0,0,-1</a>
				<d>-0.976259,0.216606,0</d>
			</e>
			<e lid="82">
				<a>0,0,-1</a>
				<d>-0.980006,0.198969,0</d>
			</e>
			<e lid="83">
				<a>0,0,-1</a>
				<d>-0.983089,0.183127,0</d>
			</e>
			<e lid="84">
				<a>0,0,-1</a>
				<d>-0.985645,0.16883,0</d>
			</e>
			<e lid="85">
				<a>0,0,-1</a>
				<d>-0.987777,0.155871,0</d>
			</e>
			<e lid="86">
				<a>0,0,-1</a>
				<d>-0.999758,0.0219848,0</d>
			</e>
			<e lid="87">
				<a>0,0,-1</a>
				<d>-0.999992,0.00395591,0</d>
			</e>
			<e lid="88">
				<a>0,0,-1</a>
				<d>-0.999926,-0.012183,0</d>
			</e>
			<e lid="89">
				<a>0,0,-1</a>
				<d>-0.999643,-0.0267035,0</d>
			</e>
			<e lid="90">
				<a>0,0,-1</a>
				<d>-0.999206,-0.0398294,0</d>
			</e>
			<e lid="91">
				<a>0,0,-1</a>
				<d>-0.984837,-0.173481,0</d>
			</e>
			<e lid="92">
				<a>0,0,-1</a>
				<d>-0.981549,-0.191209,0</d>
			</e>
			<e lid="93">
				<a>0,0,-1</a>
				<d>-0.978336,-0.207025,0</d>
			</e>
			<e lid="94">
				<a>0,0,-1</a>
				<d>-0.975226,-0.221211,0</d>
			</e>
			<e lid="95">
				<a>0,0,-1</a>
				<d>-0.972237,-0.234,0</d>
			</e>
			<e lid="96">
				<a>0,0,-1</a>
				<d>-0.932069,-0.36228,0</d>
			</e>
			<e lid="97">
				<a>0,0,-1</a>
				<d>-0.925386,-0.379026,0</d>
			</e>
			<e lid="98">
				<a>0,0,-1</a>
				<d>-0.919149,-0.393911,0</d>
			</e>
			<e lid="99">
				<a>0,0,-1</a>
				<d>-0.913331,-0.407218,0</d>
			</e>
			<e lid="100">
				<a>0,0,-1</a>
				<d>-0.907904,-0.419177,0</d>
			</e>
			<e lid="101">
				<a>0,0,-1</a>
				<d>-0.843483,-0.537156,0</d>
			</e>
			<e lid="102">
				<a>0,0,-1</a>
				<d>-0.833661,-0.552277,0</d>
			</e>
			<e lid="103">
				<a>0,0,-1</a>
				<d>-0.824639,-0.565659,0</d>
			</e>
			<e lid="104">
				<a>0,0,-1</a>
				<d>-0.816337,-0.577575,0</d>
			</e>
			<e lid="105">
				<a>0,0,-1</a>
				<d>-0.808682,-0.588246,0</d>
			</e>
			<e lid="106">
				<a>0,0,-1</a>
				<d>-0.722482,-0.69139,0</d>
			</e>
			<e lid="107">
				<a>0,0,-1</a>
				<d>-0.709899,-0.704304,0</d>
			</e>
			<e lid="108">
				<a>0,0,-1</a>
				<d>-0.69844,-0.715669,0</d>
			</e>
			<e lid="109">
				<a>0,0,-1</a>
				<d>-0.687972,-0.725737,0</d>
			</e>
			<e lid="110">
				<a>0,0,-1</a>
				<d>-0.678382,-0.734709,0</d>
			</e>
			<e lid="111">
				<a>0,0,-1</a>
				<d>-0.573716,-0.819055,0</d>
			</e>
			<e lid="112">
				<a>0,0,-1</a>
				<d>-0.558855,-0.829265,0</d>
			</e>
			<e lid="113">
				<a>0,0,-1</a>
				<d>-0.545399,-0.838176,0</d>
			</e>
			<e lid="114">
				<a>0,0,-1</a>
				<d>-0.533169,-0.846009,0</d>
			</e>
			<e lid="115">
				<a>0,0,-1</a>
				<d>-0.522012,-0.852938,0</d>
			</e>
			<e lid="116">
				<a>0,0,-1</a>
				<d>-0.402902,-0.915243,0</d>
			</e>
			<e lid="117">
				<a>0,0,-1</a>
				<d>-0.386335,-0.922358,0</d>
			</e>
			<e lid="118">
				<a>0,0,-1</a>
				<d>-0.371399,-0.928473,0</d>
			</e>
			<e lid="119">
				<a>0,0,-1</a>
				<d>-0.357876,-0.933769,0</d>
			</e>
			<e lid="120">
				<a>0,0,-1</a>
				<d>-0.345582,-0.938388,0</d>
			</e>
			<e lid="121">
				<a>0,0,-1</a>
				<d>-0.976259,0.216606,0</d>
			</e>
			<e lid="122">
				<a>0,0,-1</a>
				<d>-0.980006,0.198969,0</d>
			</e>
			<e lid="123">
				<a>0,0,-1</a>
				<d>-0.983089,0.183127,0</d>
			</e>
			<e lid="124">
				<a>0,0,-1</a>
				<d>-0.985645,0.16883,0</d>
			</e>
			<e lid="125">
				<a>0,0,-1</a>
				<d>-0.987777,0.155871,0</d>
			</e>
			<e lid="126">
				<a>0,0,-1</a>
				<d>-0.999758,0.0219848,0</d>
			</e>
			<e lid="127">
				<a>0,0,-1</a>
				<d>-0.999992,0.00395591,0</d>
			</e>
			<e lid="128">
				<a>0,0,-1</a>
				<d>-0.999926,-0.012183,0</d>
			</e>
			<e lid="129">
				<a>0,0,-1</a>
				<d>-0.999643,-0.0267035,0</d>
			</e>
			<e lid="130">
				<a>0,0,-1</a>
				<d>-0.999206,-0.0398294,0</d>
			</e>
			<e lid="131">
				<a>0,0,-1</a>
				<d>-0.984837,-0.173481,0</d>
			</e>
			<e lid="132">
				<a>0,0,-1</a>
				<d>-0.981549,-0.191209,0</d>
			</e>
			<e lid="133">
				<a>0,0,-1</a>
				<d>-0.978336,-0.207025,0</d>
			</e>
			<e lid="134">
				<a>0,0,-1</a>
				<d>-0.975226,-0.221211,0</d>
			</e>
			<e lid="135">
				<a>0,0,-1</a>
				<d>-0.972237,-0.234,0</d>
			</e>
			<e lid="136">
				<a>0,0,-1</a>
				<d>-0.932069,-0.36228,0</d>
			</e>
			<e lid="137">
				<a>0,0,-1</a>
				<d>-0.925386,-0.379026,0</d>
			</e>
			<e lid="138">
				<a>0,0,-1</a>
				<d>-0.919149,-0.393911,0</d>
			</e>
			<e lid="139">
				<a>0,0,-1</a>
				<d>-0.913331,-0.407218,0</d>
			</e>
			<e lid="140">
				<a>0,0,-1</a>
				<d>-0.907904,-0.419177,0</d>
			</e>
			<e lid="141">
				<a>0,0,-1</a>
				<d>-0.843483,-0.537156,0</d>
			</e>
			<e lid="142">
				<a>0,0,-1</a>
				<d>-0.833661,-0.552277,0</d>
			</e>
			<e lid="143">
				<a>0,0,-1</a>
				<d>-0.824639,-0.565659,0</d>
			</e>
			<e lid="144">
				<a>0,0,-1</a>
				<d>-0.816337,-0.577575,0</d>
			</e>
			<e lid="145">
				<a>0,0,-1</a>
				<d>-0.808682,-0.588246,0</d>
			</e>
			<e lid="146">
				<a>0,0,-1</a>
				<d>-0.722482,-0.69139,0</d>
			</e>
			<e lid="147">
				<a>0,0,-1</a>
				<d>-0.709899,-0.704304,0</d>
			</e>
			<e lid="148">
				<a>0,0,-1</a>
				<d>-0.69844,-0.715669,0</d>
			</e>
			<e lid="149">
				<a>0,0,-1</a>
				<d>-0.687972,-0.725737,0</d>
			</e>
			<e lid="150">
				<a>0,0,-1</a>
				<d>-0.678382,-0.734709,0</d>
			</e>
			<e lid="151">
				<a>0,0,-1</a>
				<d>-0.573716,-0.819055,0</d>
			</e>
			<e lid="152">
				<a>0,0,-1</a>
				<d>-0.558855,-0.829265,0</d>
			</e>
			<e lid="153">
				<a>0,0,-1</a>
				<d>-0.545399,-0.838176,0</d>
			</e>
			<e lid="154">
				<a>0,0,-1</a>
				<d>-0.533169,-0.846009,0</d>
			</e>
			<e lid="155">
				<a>0,0,-1</a>
				<d>-0.522012,-0.852938,0</d>
			</e>
			<e lid="156">
				<a>0,0,-1</a>
				<d>-0.402902,-0.915243,0</d>
			</e>
			<e lid="157">
				<a>0,0,-1</a>
				<d>-0.386335,-0.922358,0</d>
			</e>
			<e lid="158">
				<a>0,0,-1</a>
				<d>-0.371399,-0.928473,0</d>
			</e>
			<e lid="159">
				<a>0,0,-1</a>
				<d>-0.357876,-0.933769,0</d>
			</e>
			<e lid="160">
				<a>0,0,-1</a>
				<d>-0.345582,-0.938388,0</d>
			</e>
			<e lid="161">
				<a>0,0,-1</a>
				<d>-0.976259,0.216606,0</d>
			</e>
			<e lid="162">
				<a>0,0,-1</a>
				<d>-0.980006,0.198969,0</d>
			</e>
			<e lid="163">
				<a>0,0,-1</a>
				<d>-0.983089,0.183127,0</d>
			</e>
			<e lid="164">
				<a>0,0,-1</a>
				<d>-0.985645,0.16883,0</d>
			</e>
			<e lid="165">
				<a>0,0,-1</a>
				<d>-0.987777,0.155871,0</d>
			</e>
			<e lid="166">
				<a>0,0,-1</a>
				<d>-0.999758,0.0219848,0</d>
			</e>
			<e lid="167">
				<a>0,0,-1</a>
				<d>-0.999992,0.00395591,0</d>
			</e>
			<e lid="168">
				<a>0,0,-1</a>
				<d>-0.999926,-0.012183,0</d>
			</e>
			<e lid="169">
				<a>0,0,-1</a>
				<d>-0.999643,-0.0267035,0</d>
			</e>
			<e lid="170">
				<a>0,0,-1</a>
				<d>-0.999206,-0.0398294,0</d>
			</e>
			<e lid="171">
				<a>0,0,-1</a>
				<d>-0.984837,-0.173481,0</d>
			</e>
			<e lid="172">
				<a>0,0,-1</a>
				<d>-0.981549,-0.191209,0</d>
			</e>
			<e lid="173">
				<a>0,0,-1</a>
				<d>-0.978336,-0.207025,0</d>
			</e>
			<e lid="174">
				<a>0,0,-1</a>
				<d>-0.975226,-0.221211,0</d>
			</e>
			<e lid="175">
				<a>0,0,-1</a>
				<d>-0.972237,-0.234,0</d>
			</e>
			<e lid="176">
				<a>0,0,-1</a>
				<d>-0.932069,-0.36228,0</d>
			</e>
			<e lid="177">
				<a>0,0,-1</a>
				<d>-0.925386,-0.379026,0</d>
			</e>
			<e lid="178">
				<a>0,0,-1</a>
				<d>-0.919149,-0.393911,0</d>
			</e>
			<e lid="179">
				<a>0,0,-1</a>
				<d>-0.913331,-0.407218,0</d>
			</e>
			<e lid="180">
				<a>0,0,-1</a>
				<d>-0.907904,-0.419177,0</d>
			</e>
			<e lid="181">
				<a>0,0,-1</a>
				<d>-0.843483,-0.537156,0</d>
			</e>
			<e lid="182">
				<a>0,0,-1</a>
				<d>-0.833661,-0.552277,0</d>
			</e>
			<e lid="183">
				<a>0,0,-1</a>
				<d>-0.824639,-0.565659,0</d>
			</e>
			<e lid="184">
				<a>0,0,-1</a>
				<d>-0.816337,-0.577575,0</d>
			</e>
			<e lid="185">
				<a>0,0,-1</a>
				<d>-0.808682,-0.588246,0</d>
			</e>
			<e lid="186">
				<a>0,0,-1</a>
				<d>-0.722482,-0.69139,0</d>
			</e>
			<e lid="187">
				<a>0,0,-1</a>
				<d>-0.709899,-0.704304,0</d>
			</e>
			<e lid="188">
				<a>0,0,-1</a>
				<d>-0.69844,-0.715669,0</d>
			</e>
			<e lid="189">
				<a>0,0,-1</a>
				<d>-0.687972,-0.725737,0</d>
			</e>
			<e lid="190">
				<a>0,0,-1</a>
				<d>-0.678382,-0.734709,0</d>
			</e>
			<e lid="191">
				<a>0,0,-1</a>
				<d>-0.573716,-0.819055,0</d>
			</e>
			<e lid="192">
				<a>0,0,-1</a>
				<d>-0.558855,-0.829265,0</d>
			</e>
			<e lid="193">
				<a>0,0,-1</a>
				<d>-0.545399,-0.838176,0</d>
			</e>
			<e lid="194">
				<a>0,0,-1</a>
				<d>-0.533169,-0.846009,0</d>
			</e>
			<e lid="195">
				<a>0,0,-1</a>
				<d>-0.522012,-0.852938,0</d>
			</e>
			<e lid="196">
				<a>0,0,-1</a>
				<d>-0.402902,-0.915243,0</d>
			</e>
			<e lid="197">
				<a>0,0,-1</a>
				<d>-0.386335,-0.922358,0</d>
			</e>
			<e lid="198">
				<a>0,0,-1</a>
				<d>-0.371399,-0.928473,0</d>
			</e>
			<e lid="199">
				<a>0,0,-1</a>
				<d>-0.357876,-0.933769,0</d>
			</e>
			<e lid="200">
				<a>0,0,-1</a>
				<d>-0.345582,-0.938388,0</d>
			</e>
			<e lid="201">
				<a>0,0,-1</a>
				<d>-0.976259,0.216606,0</d>
			</e>
			<e lid="202">
				<a>0,0,-1</a>
				<d>-0.980006,0.198969,0</d>
			</e>
			<e lid="203">
				<a>0,0,-1</a>
				<d>-0.983089,0.183127,0</d>
			</e>
			<e lid="204">
				<a>0,0,-1</a>
				<d>-0.985645,0.16883,0</d>
			</e>
			<e lid="205">
				<a>0,0,-1</a>
				<d>-0.987777,0.155871,0</d>
			</e>
			<e lid="206">
				<a>0,0,-1</a>
				<d>-0.999758,0.0219848,0</d>
			</e>
			<e lid="207">
				<a>0,0,-1</a>
				<d>-0.999992,0.00395591,0</d>
			</e>
			<e lid="208">
				<a>0,0,-1</a>
				<d>-0.999926,-0.012183,0</d>
			</e>
			<e lid="209">
				<a>0,0,-1</a>
				<d>-0.999643,-0.0267035,0</d>
			</e>
			<e lid="210">
				<a>0,0,-1</a>
				<d>-0.999206,-0.0398294,0</d>
			</e>
			<e lid="211">
				<a>0,0,-1</a>
				<d>-0.984837,-0.173481,0</d>
			</e>
			<e lid="212">
				<a>0,0,-1</a>
				<d>-0.981549,-0.191209,0</d>
			</e>
			<e lid="213">
				<a>0,0,-1</a>
				<d>-0.978336,-0.207025,0</d>
			</e>
			<e lid="214">
				<a>0,0,-1</a>
				<d>-0.975226,-0.221211,0</d>
			</e>
			<e lid="215">
				<a>0,0,-1</a>
				<d>-0.972237,-0.234,0</d>
			</e>
			<e lid="216">
				<a>0,0,-1</a>
				<d>-0.932069,-0.36228,0</d>
			</e>
			<e lid="217">
				<a>0,0,-1</a>
				<d>-0.925386,-0.379026,0</d>
			</e>
			<e lid="218">
				<a>0,0,-1</a>
				<d>-0.919149,-0.393911,0</d>
			</e>
			<e lid="219">
				<a>0,0,-1</a>
				<d>-0.913331,-0.407218,0</d>
			</e>
			<e lid="220">
				<a>0,0,-1</a>
				<d>-0.907904,-0.419177,0</d>
			</e>
			<e lid="221">
				<a>0,0,-1</a>
				<d>-0.843483,-0.537156,0</d>
			</e>
			<e lid="222">
				<a>0,0,-1</a>
				<d>-0.833661,-0.552277,0</d>
			</e>
			<e lid="223">
				<a>0,0,-1</a>
				<d>-0.824639,-0.565659,0</d>
			</e>
			<e lid="224">
				<a>0,0,-1</a>
				<d>-0.816337,-0.577575,0</d>
			</e>
			<e lid="225">
				<a>0,0,-1</a>
				<d>-0.808682,-0.588246,0</d>
			</e>
			<e lid="226">
				<a>0,0,-1</a>
				<d>-0.722482,-0.69139,0</d>
			</e>
			<e lid="227">
				<a>0,0,-1</a>
				<d>-0.709899,-0.704304,0</d>
			</e>
			<e lid="228">
				<a>0,0,-1</a>
				<d>-0.69844,-0.715669,0</d>
			</e>
			<e lid="229">
				<a>0,0,-1</a>
				<d>-0.687972,-0.725737,0</d>
			</e>
			<e lid="230">
				<a>0,0,-1</a>
				<d>-0.678382,-0.734709,0</d>
			</e>
			<e lid="231">
				<a>0,0,-1</a>
				<d>-0.573716,-0.819055,0</d>
			</e>
			<e lid="232">
				<a>0,0,-1</a>
				<d>-0.558855,-0.829265,0</d>
			</e>
			<e lid="233">
				<a>0,0,-1</a>
				<d>-0.545399,-0.838176,0</d>
			</e>
			<e lid="234">
				<a>0,0,-1</a>
				<d>-0.533169,-0.846009,0</d>
			</e>
			<e lid="235">
				<a>0,0,-1</a>
				<d>-0.522012,-0.852938,0</d>
			</e>
			<e lid="236">
				<a>0,0,-1</a>
				<d>-0.402902,-0.915243,0</d>
			</e>
			<e lid="237">
				<a>0,0,-1</a>
				<d>-0.386335,-0.922358,0</d>
			</e>
			<e lid="238">
				<a>0,0,-1</a>
				<d>-0.371399,-0.928473,0</d>
			</e>
			<e lid="239">
				<a>0,0,-1</a>
				<d>-0.357876,-0.933769,0</d>
			</e>
			<e lid="240">
				<a>0,0,-1</a>
				<d>-0.345582,-0.938388,0</d>
			</e>
			<e lid="241">
				<a>0,0,-1</a>
				<d>-0.976259,0.216606,0</d>
			</e>
			<e lid="242">
				<a>0,0,-1</a>
				<d>-0.980006,0.198969,0</d>
			</e>
			<e lid="243">
				<a>0,0,-1</a>
				<d>-0.983089,0.183127,0</d>
			</e>
			<e lid="244">
				<a>0,0,-1</a>
				<d>-0.985645,0.16883,0</d>
			</e>
			<e lid="245">
				<a>0,0,-1</a>
				<d>-0.987777,0.155871,0</d>
			</e>
			<e lid="246">
				<a>0,0,-1</a>
				<d>-0.999758,0.0219848,0</d>
			</e>
			<e lid="247">
				<a>0,0,-1</a>
				<d>-0.999992,0.00395591,0</d>
			</e>
			<e lid="248">
				<a>0,0,-1</a>
				<d>-0.999926,-0.012183,0</d>
			</e>
			<e lid="249">
				<a>0,0,-1</a>
				<d>-0.999643,-0.0267035,0</d>
			</e>
			<e lid="250">
				<a>0,0,-1</a>
				<d>-0.999206,-0.0398294,0</d>
			</e>
			<e lid="251">
				<a>0,0,-1</a>
				<d>-0.984837,-0.173481,0</d>
			</e>
			<e lid="252">
				<a>0,0,-1</a>
				<d>-0.981549,-0.191209,0</d>
			</e>
			<e lid="253">
				<a>0,0,-1</a>
				<d>-0.978336,-0.207025,0</d>
			</e>
			<e lid="254">
				<a>0,0,-1</a>
				<d>-0.975226,-0.221211,0</d>
			</e>
			<e lid="255">
				<a>0,0,-1</a>
				<d>-0.972237,-0.234,0</d>
			</e>
			<e lid="256">
				<a>0,0,-1</a>
				<d>-0.932069,-0.36228,0</d>
			</e>
			<e lid="257">
				<a>0,0,-1</a>
				<d>-0.925386,-0.379026,0</d>
			</e>
			<e lid="258">
				<a>0,0,-1</a>
				<d>-0.919149,-0.393911,0</d>
			</e>
			<e lid="259">
				<a>0,0,-1</a>
				<d>-0.913331,-0.407218,0</d>
			</e>
			<e lid="260">
				<a>0,0,-1</a>
				<d>-0.907904,-0.419177,0</d>
			</e>
			<e lid="261">
				<a>0,0,-1</a>
				<d>-0.843483,-0.537156,0</d>
			</e>
			<e lid="262">
				<a>0,0,-1</a>
				<d>-0.833661,-0.552277,0</d>
			</e>
			<e lid="263">
				<a>0,0,-1</a>
				<d>-0.824639,-0.565659,0</d>
			</e>
			<e lid="264">
				<a>0,0,-1</a>
				<d>-0.816337,-0.577575,0</d>
			</e>
			<e lid="265">
				<a>0,0,-1</a>
				<d>-0.808682,-0.588246,0</d>
			</e>
			<e lid="266">
				<a>0,0,-1</a>
				<d>-0.722482,-0.69139,0</d>
			</e>
			<e lid="267">
				<a>0,0,-1</a>
				<d>-0.709899,-0.704304,0</d>
			</e>
			<e lid="268">
				<a>0,0,-1</a>
				<d>-0.69844,-0.715669,0</d>
			</e>
			<e lid="269">
				<a>0,0,-1</a>
				<d>-0.687972,-0.725737,0</d>
			</e>
			<e lid="270">
				<a>0,0,-1</a>
				<d>-0.678382,-0.734709,0</d>
			</e>
			<e lid="271">
				<a>0,0,-1</a>
				<d>-0.573716,-0.819055,0</d>
			</e>
			<e lid="272">
				<a>0,0,-1</a>
				<d>-0.558855,-0.829265,0</d>
			</e>
			<e lid="273">
				<a>0,0,-1</a>
				<d>-0.545399,-0.838176,0</d>
			</e>
			<e lid="274">
				<a>0,0,-1</a>
				<d>-0.533169,-0.846009,0</d>
			</e>
			<e lid="275">
				<a>0,0,-1</a>
				<d>-0.522012,-0.852938,0</d>
			</e>
			<e lid="276">
				<a>0,0,-1</a>
				<d>-0.402902,-0.915243,0</d>
			</e>
			<e lid="277">
				<a>0,0,-1</a>
				<d>-0.386335,-0.922358,0</d>
			</e>
			<e lid="278">
				<a>0,0,-1</a>
				<d>-0.371399,-0.928473,0</d>
			</e>
			<e lid="279">
				<a>0,0,-1</a>
				<d>-0.357876,-0.933769,0</d>
			</e>
			<e lid="280">
				<a>0,0,-1</a>
				<d>-0.345582,-0.938388,0</d>
			</e>
			<e lid="281">
				<a>0,0,-1</a>
				<d>-0.976259,0.216606,0</d>
			</e>
			<e lid="282">
				<a>0,0,-1</a>
				<d>-0.980006,0.198969,0</d>
			</e>
			<e lid="283">
				<a>0,0,-1</a>
				<d>-0.983089,0.183127,0</d>
			</e>
			<e lid="284">
				<a>0,0,-1</a>
				<d>-0.985645,0.16883,0</d>
			</e>
			<e lid="285">
				<a>0,0,-1</a>
				<d>-0.987777,0.155871,0</d>
			</e>
			<e lid="286">
				<a>0,0,-1</a>
				<d>-0.999758,0.0219848,0</d>
			</e>
			<e lid="287">
				<a>0,0,-1</a>
				<d>-0.999992,0.00395591,0</d>
			</e>
			<e lid="288">
				<a>0,0,-1</a>
				<d>-0.999926,-0.012183,0</d>
			</e>
			<e lid="289">
				<a>0,0,-1</a>
				<d>-0.999643,-0.0267035,0</d>
			</e>
			<e lid="290">
				<a>0,0,-1</a>
				<d>-0.999206,-0.0398294,0</d>
			</e>
			<e lid="291">
				<a>0,0,-1</a>
				<d>-0.984837,-0.173481,0</d>
			</e>
			<e lid="292">
				<a>0,0,-1</a>
				<d>-0.981549,-0.191209,0</d>
			</e>
			<e lid="293">
				<a>0,0,-1</a>
				<d>-0.978336,-0.207025,0</d>
			</e>
			<e lid="294">
				<a>0,0,-1</a>
				<d>-0.975226,-0.221211,0</d>
			</e>
			<e lid="295">
				<a>0,0,-1</a>
				<d>-0.972237,-0.234,0</d>
			</e>
			<e lid="296">
				<a>0,0,-1</a>
				<d>-0.932069,-0.36228,0</d>
			</e>
			<e lid="297">
				<a>0,0,-1</a>
				<d>-0.925386,-0.379026,0</d>
			</e>
			<e lid="298">
				<a>0,0,-1</a>
				<d>-0.919149,-0.393911,0</d>
			</e>
			<e lid="299">
				<a>0,0,-1</a>
				<d>-0.913331,-0.407218,0</d>
			</e>
			<e lid="300">
				<a>0,0,-1</a>
				<d>-0.907904,-0.419177,0</d>
			</e>
			<e lid="301">
				<a>0,0,-1</a>
				<d>-0.843483,-0.537156,0</d>
			</e>
			<e lid="302">
				<a>0,0,-1</a>
				<d>-0.833661,-0.552277,0</d>
			</e>
			<e lid="303">
				<a>0,0,-1</a>
				<d>-0.824639,-0.565659,0</d>
			</e>
			<e lid="304">
				<a>0,0,-1</a>
				<d>-0.816337,-0.577575,0</d>
			</e>
			<e lid="305">
				<a>0,0,-1</a>
				<d>-0.808682,-0.588246,0</d>
			</e>
			<e lid="306">
				<a>0,0,-1</a>
				<d>-0.722482,-0.69139,0</d>
			</e>
			<e lid="307">
				<a>0,0,-1</a>
				<d>-0.709899,-0.704304,0</d>
			</e>
			<e lid="308">
				<a>0,0,-1</a>
				<d>-0.69844,-0.715669,0</d>
			</e>
			<e lid="309">
				<a>0,0,-1</a>
				<d>-0.687972,-0.725737,0</d>
			</e>
			<e lid="310">
				<a>0,0,-1</a>
				<d>-0.678382,-0.734709,0</d>
			</e>
			<e lid="311">
				<a>0,0,-1</a>
				<d>-0.573716,-0.819055,0</d>
			</e>
			<e lid="312">
				<a>0,0,-1</a>
				<d>-0.558855,-0.829265,0</d>
			</e>
			<e lid="313">
				<a>0,0,-1</a>
				<d>-0.545399,-0.838176,0</d>
			</e>
			<e lid="314">
				<a>0,0,-1</a>
				<d>-0.533169,-0.846009,0</d>
			</e>
			<e lid="315">
				<a>0,0,-1</a>
				<d>-0.522012,-0.852938,0</d>
			</e>
			<e lid="316">
				<a>0,0,-1</a>
				<d>-0.402902,-0.915243,0</d>
			</e>
			<e lid="317">
				<a>0,0,-1</a>
				<d>-0.386335,-0.922358,0</d>
			</e>
			<e lid="318">
				<a>0,0,-1</a>
				<d>-0.371399,-0.928473,0</d>
			</e>
			<e lid="319">
				<a>0,0,-1</a>
				<d>-0.357876,-0.933769,0</d>
			</e>
			<e lid="320">
				<a>0,0,-1</a>
				<d>-0.345582,-0.938388,0</d>
			</e>
		</ElementData>
	</MeshData>
	<Boundary>
		<bc name="FixedDisplacement1" type="fix" node_set="@surface:FixedDisplacement1">
			<dofs>z</dofs>
		</bc>
		<bc name="FixedDisplacement2" type="fix" node_set="@surface:FixedDisplacement2">
			<dofs>y</dofs>
		</bc>
		<bc name="FixedDisplacement3" type="fix" node_set="@surface:FixedDisplacement3">
			<dofs>x</dofs>
		</bc>
	</Boundary>
	<Step>
		<step id="1" name="Step0">
			<Control>
				<analysis>STATIC</analysis>
				<time_steps>1</time_steps>
				<step_size>1</step_size>
				<solver>
					<max_refs>15</max_refs>
					<max_ups>10</max_ups>
					<diverge_reform>1</diverge_reform>
					<reform_each_time_step>1</reform_each_time_step>
					<dtol>1e-4</dtol>
					<etol>1e-3</etol>
					<rtol>0</rtol>
					<lstol>0.9</lstol>
					<min_residual>1e-6</min_residual>
					<qnmethod>BFGS</qnmethod>
					<rhoi>0</rhoi>
				</solver>
				<time_stepper>
					<dtmin>0.1</dtmin>
					<dtmax>1</dtmax>
					<max_retries>10</max_retries>
					<opt_iter>15</opt_iter>
				</time_stepper>
			</Control>
		</step>
		<step id="2" name="Step1">
			<Control>
				<analysis>STATIC</analysis>
				<time_steps>10</time_steps>
				<step_size>0.1</step_size>
				<solver>
					<max_refs>15</max_refs>
					<max_ups>10</max_ups>
					<diverge_reform>1</diverge_reform>
					<reform_each_time_step>1</reform_each_time_step>
					<dtol>1e-2</dtol>
					<etol>1e-1</etol>
					<rtol>0</rtol>
					<lstol>0.9</lstol>
					<min_residual>1e-6</min_residual>
					<qnmethod>BFGS</qnmethod>
					<rhoi>0</rhoi>
				</solver>
				<time_stepper>
					<dtmin>0.01</dtmin>
					<dtmax>0.1</dtmax>
					<max_retries>10</max_retries>
					<opt_iter>15</opt_iter>
				</time_stepper>
			</Control>
			<Boundary>
				<bc name="PrescribedDisplacement1" type="prescribe" node_set="@surface:PrescribedDisplacement1">
					<dof>z</dof>
					<scale lc="3">0.0</scale>
					<relative>0</relative>
				</bc>
			</Boundary>
			<Loads>
				<surface_load name="PressureLoad1" type="pressure" surface="PressureLoad1">
					<pressure lc="2">23500</pressure>
					<linear>1</linear>
					<symmetric_stiffness>1</symmetric_stiffness>
					<shell_bottom>0</shell_bottom>
				</surface_load>
			</Loads>
		</step>
	</Step>
	<LoadData>
		<load_controller id="1" type="loadcurve">
			<interpolate>LINEAR</interpolate>
			<points>
				<point>0,0</point>
				<point>1.995,0</point>
				<point>1.9951,1</point>
				<point>2,1</point>
			</points>
		</load_controller>
		<load_controller id="2" type="loadcurve">
			<interpolate>LINEAR</interpolate>
			<points>
				<point>0,0</point>
				<point>1,0</point>
				<point>2,1</point>
			</points>
		</load_controller>
		<load_controller id="3" type="loadcurve">
			<interpolate>LINEAR</interpolate>
			<points>
				<point>0,0</point>
				<point>1,0</point>
				<point>2,0</point>
			</points>
		</load_controller>
	</LoadData>
	<Output>
		<plotfile type="febio">
			<var type="displacement"/>
			<var type="relative volume"/>
			<var type="stress"/>
		</plotfile>
	</Output>
</febio_spec>
