<?xml version="1.0" encoding="ISO-8859-1"?>
<febio_spec version="3.0">
	<Module type="solid"/>
	<Globals>
		<Constants>
			<T>0</T>
			<R>0</R>
			<Fc>0</Fc>
		</Constants>
	</Globals>
	<Material>
		<material id="1" name="M1" type="PeriodicNetwork">
			<netNum>1</netNum>
			<netSave>0</netSave>
			<netSolve>1</netSolve>
			<E>100000</E>
			<v>4.900000e-01</v>
		</material>
		<material id="2" name="M2" type="PeriodicNetwork">
			<netNum>2</netNum>
			<netSave>0</netSave>
			<netSolve>1</netSolve>
			<E>100000</E>
			<v>4.900000e-01</v>
		</material>
		<material id="3" name="M3" type="PeriodicNetwork">
			<netNum>3</netNum>
			<netSave>0</netSave>
			<netSolve>1</netSolve>
			<E>100000</E>
			<v>4.900000e-01</v>
		</material>
		<material id="4" name="M4" type="PeriodicNetwork">
			<netNum>4</netNum>
			<netSave>0</netSave>
			<netSolve>1</netSolve>
			<E>100000</E>
			<v>4.900000e-01</v>
		</material>
		<material id="5" name="M5" type="PeriodicNetwork">
			<netNum>5</netNum>
			<netSave>0</netSave>
			<netSolve>1</netSolve>
			<E>100000</E>
			<v>4.900000e-01</v>
		</material>
		<material id="6" name="M6" type="PeriodicNetwork">
			<netNum>6</netNum>
			<netSave>0</netSave>
			<netSolve>1</netSolve>
			<E>100000</E>
			<v>4.900000e-01</v>
		</material>
		<material id="7" name="M7" type="PeriodicNetwork">
			<netNum>7</netNum>
			<netSave>0</netSave>
			<netSolve>1</netSolve>
			<E>100000</E>
			<v>4.900000e-01</v>
		</material>
		<material id="8" name="M8" type="PeriodicNetwork">
			<netNum>8</netNum>
			<netSave>0</netSave>
			<netSolve>1</netSolve>
			<E>100000</E>
			<v>4.900000e-01</v>
		</material>
		<material id="9" name="M9" type="PeriodicNetwork">
			<netNum>9</netNum>
			<netSave>0</netSave>
			<netSolve>1</netSolve>
			<E>100000</E>
			<v>4.900000e-01</v>
		</material>
		<material id="10" name="M10" type="PeriodicNetwork">
			<netNum>10</netNum>
			<netSave>0</netSave>
			<netSolve>1</netSolve>
			<E>100000</E>
			<v>4.900000e-01</v>
		</material>
		<material id="11" name="M11" type="PeriodicNetwork">
			<netNum>11</netNum>
			<netSave>0</netSave>
			<netSolve>1</netSolve>
			<E>100000</E>
			<v>4.900000e-01</v>
		</material>
		<material id="12" name="M12" type="PeriodicNetwork">
			<netNum>12</netNum>
			<netSave>0</netSave>
			<netSolve>1</netSolve>
			<E>100000</E>
			<v>4.900000e-01</v>
		</material>
		<material id="13" name="M13" type="PeriodicNetwork">
			<netNum>13</netNum>
			<netSave>0</netSave>
			<netSolve>1</netSolve>
			<E>100000</E>
			<v>4.900000e-01</v>
		</material>
		<material id="14" name="M14" type="PeriodicNetwork">
			<netNum>14</netNum>
			<netSave>0</netSave>
			<netSolve>1</netSolve>
			<E>100000</E>
			<v>4.900000e-01</v>
		</material>
		<material id="15" name="M15" type="PeriodicNetwork">
			<netNum>15</netNum>
			<netSave>0</netSave>
			<netSolve>1</netSolve>
			<E>100000</E>
			<v>4.900000e-01</v>
		</material>
		<material id="16" name="M16" type="PeriodicNetwork">
			<netNum>16</netNum>
			<netSave>0</netSave>
			<netSolve>1</netSolve>
			<E>100000</E>
			<v>4.900000e-01</v>
		</material>
		<material id="17" name="M17" type="PeriodicNetwork">
			<netNum>17</netNum>
			<netSave>0</netSave>
			<netSolve>1</netSolve>
			<E>100000</E>
			<v>4.900000e-01</v>
		</material>
		<material id="18" name="M18" type="PeriodicNetwork">
			<netNum>18</netNum>
			<netSave>0</netSave>
			<netSolve>1</netSolve>
			<E>100000</E>
			<v>4.900000e-01</v>
		</material>
		<material id="19" name="M19" type="PeriodicNetwork">
			<netNum>19</netNum>
			<netSave>0</netSave>
			<netSolve>1</netSolve>
			<E>100000</E>
			<v>4.900000e-01</v>
		</material>
		<material id="20" name="M20" type="PeriodicNetwork">
			<netNum>20</netNum>
			<netSave>0</netSave>
			<netSolve>1</netSolve>
			<E>100000</E>
			<v>4.900000e-01</v>
		</material>
		<material id="21" name="M21" type="PeriodicNetwork">
			<netNum>21</netNum>
			<netSave>0</netSave>
			<netSolve>1</netSolve>
			<E>100000</E>
			<v>4.900000e-01</v>
		</material>
		<material id="22" name="M22" type="PeriodicNetwork">
			<netNum>22</netNum>
			<netSave>0</netSave>
			<netSolve>1</netSolve>
			<E>100000</E>
			<v>4.900000e-01</v>
		</material>
		<material id="23" name="M23" type="PeriodicNetwork">
			<netNum>23</netNum>
			<netSave>0</netSave>
			<netSolve>1</netSolve>
			<E>100000</E>
			<v>4.900000e-01</v>
		</material>
		<material id="24" name="M24" type="PeriodicNetwork">
			<netNum>24</netNum>
			<netSave>0</netSave>
			<netSolve>1</netSolve>
			<E>100000</E>
			<v>4.900000e-01</v>
		</material>
		<material id="25" name="M25" type="PeriodicNetwork">
			<netNum>25</netNum>
			<netSave>0</netSave>
			<netSolve>1</netSolve>
			<E>100000</E>
			<v>4.900000e-01</v>
		</material>
		<material id="26" name="M26" type="PeriodicNetwork">
			<netNum>26</netNum>
			<netSave>0</netSave>
			<netSolve>1</netSolve>
			<E>100000</E>
			<v>4.900000e-01</v>
		</material>
		<material id="27" name="M27" type="PeriodicNetwork">
			<netNum>27</netNum>
			<netSave>0</netSave>
			<netSolve>1</netSolve>
			<E>100000</E>
			<v>4.900000e-01</v>
		</material>
		<material id="28" name="M28" type="PeriodicNetwork">
			<netNum>28</netNum>
			<netSave>0</netSave>
			<netSolve>1</netSolve>
			<E>100000</E>
			<v>4.900000e-01</v>
		</material>
		<material id="29" name="M29" type="PeriodicNetwork">
			<netNum>29</netNum>
			<netSave>0</netSave>
			<netSolve>1</netSolve>
			<E>100000</E>
			<v>4.900000e-01</v>
		</material>
		<material id="30" name="M30" type="PeriodicNetwork">
			<netNum>30</netNum>
			<netSave>0</netSave>
			<netSolve>1</netSolve>
			<E>100000</E>
			<v>4.900000e-01</v>
		</material>
		<material id="31" name="M31" type="PeriodicNetwork">
			<netNum>31</netNum>
			<netSave>0</netSave>
			<netSolve>1</netSolve>
			<E>100000</E>
			<v>4.900000e-01</v>
		</material>
		<material id="32" name="M32" type="PeriodicNetwork">
			<netNum>32</netNum>
			<netSave>0</netSave>
			<netSolve>1</netSolve>
			<E>100000</E>
			<v>4.900000e-01</v>
		</material>
		<material id="33" name="M33" type="PeriodicNetwork">
			<netNum>33</netNum>
			<netSave>0</netSave>
			<netSolve>1</netSolve>
			<E>100000</E>
			<v>4.900000e-01</v>
		</material>
		<material id="34" name="M34" type="PeriodicNetwork">
			<netNum>34</netNum>
			<netSave>0</netSave>
			<netSolve>1</netSolve>
			<E>100000</E>
			<v>4.900000e-01</v>
		</material>
		<material id="35" name="M35" type="PeriodicNetwork">
			<netNum>35</netNum>
			<netSave>0</netSave>
			<netSolve>1</netSolve>
			<E>100000</E>
			<v>4.900000e-01</v>
		</material>
		<material id="36" name="M36" type="PeriodicNetwork">
			<netNum>36</netNum>
			<netSave>0</netSave>
			<netSolve>1</netSolve>
			<E>100000</E>
			<v>4.900000e-01</v>
		</material>
		<material id="37" name="M37" type="PeriodicNetwork">
			<netNum>37</netNum>
			<netSave>0</netSave>
			<netSolve>1</netSolve>
			<E>100000</E>
			<v>4.900000e-01</v>
		</material>
		<material id="38" name="M38" type="PeriodicNetwork">
			<netNum>38</netNum>
			<netSave>0</netSave>
			<netSolve>1</netSolve>
			<E>100000</E>
			<v>4.900000e-01</v>
		</material>
		<material id="39" name="M39" type="PeriodicNetwork">
			<netNum>39</netNum>
			<netSave>0</netSave>
			<netSolve>1</netSolve>
			<E>100000</E>
			<v>4.900000e-01</v>
		</material>
		<material id="40" name="M40" type="PeriodicNetwork">
			<netNum>40</netNum>
			<netSave>0</netSave>
			<netSolve>1</netSolve>
			<E>100000</E>
			<v>4.900000e-01</v>
		</material>
		<material id="41" name="M41" type="PeriodicNetwork">
			<netNum>41</netNum>
			<netSave>0</netSave>
			<netSolve>1</netSolve>
			<E>100000</E>
			<v>4.900000e-01</v>
		</material>
		<material id="42" name="M42" type="PeriodicNetwork">
			<netNum>42</netNum>
			<netSave>0</netSave>
			<netSolve>1</netSolve>
			<E>100000</E>
			<v>4.900000e-01</v>
		</material>
		<material id="43" name="M43" type="PeriodicNetwork">
			<netNum>43</netNum>
			<netSave>0</netSave>
			<netSolve>1</netSolve>
			<E>100000</E>
			<v>4.900000e-01</v>
		</material>
		<material id="44" name="M44" type="PeriodicNetwork">
			<netNum>44</netNum>
			<netSave>0</netSave>
			<netSolve>1</netSolve>
			<E>100000</E>
			<v>4.900000e-01</v>
		</material>
		<material id="45" name="M45" type="PeriodicNetwork">
			<netNum>45</netNum>
			<netSave>0</netSave>
			<netSolve>1</netSolve>
			<E>100000</E>
			<v>4.900000e-01</v>
		</material>
		<material id="46" name="M46" type="PeriodicNetwork">
			<netNum>46</netNum>
			<netSave>0</netSave>
			<netSolve>1</netSolve>
			<E>100000</E>
			<v>4.900000e-01</v>
		</material>
		<material id="47" name="M47" type="PeriodicNetwork">
			<netNum>47</netNum>
			<netSave>0</netSave>
			<netSolve>1</netSolve>
			<E>100000</E>
			<v>4.900000e-01</v>
		</material>
		<material id="48" name="M48" type="PeriodicNetwork">
			<netNum>48</netNum>
			<netSave>0</netSave>
			<netSolve>1</netSolve>
			<E>100000</E>
			<v>4.900000e-01</v>
		</material>
		<material id="49" name="M49" type="PeriodicNetwork">
			<netNum>49</netNum>
			<netSave>0</netSave>
			<netSolve>1</netSolve>
			<E>100000</E>
			<v>4.900000e-01</v>
		</material>
		<material id="50" name="M50" type="PeriodicNetwork">
			<netNum>50</netNum>
			<netSave>0</netSave>
			<netSolve>1</netSolve>
			<E>100000</E>
			<v>4.900000e-01</v>
		</material>
		<material id="51" name="M51" type="PeriodicNetwork">
			<netNum>51</netNum>
			<netSave>0</netSave>
			<netSolve>1</netSolve>
			<E>100000</E>
			<v>4.900000e-01</v>
		</material>
		<material id="52" name="M52" type="PeriodicNetwork">
			<netNum>52</netNum>
			<netSave>0</netSave>
			<netSolve>1</netSolve>
			<E>100000</E>
			<v>4.900000e-01</v>
		</material>
		<material id="53" name="M53" type="PeriodicNetwork">
			<netNum>53</netNum>
			<netSave>0</netSave>
			<netSolve>1</netSolve>
			<E>100000</E>
			<v>4.900000e-01</v>
		</material>
		<material id="54" name="M54" type="PeriodicNetwork">
			<netNum>54</netNum>
			<netSave>0</netSave>
			<netSolve>1</netSolve>
			<E>100000</E>
			<v>4.900000e-01</v>
		</material>
		<material id="55" name="M55" type="PeriodicNetwork">
			<netNum>55</netNum>
			<netSave>0</netSave>
			<netSolve>1</netSolve>
			<E>100000</E>
			<v>4.900000e-01</v>
		</material>
		<material id="56" name="M56" type="PeriodicNetwork">
			<netNum>56</netNum>
			<netSave>0</netSave>
			<netSolve>1</netSolve>
			<E>100000</E>
			<v>4.900000e-01</v>
		</material>
		<material id="57" name="M57" type="PeriodicNetwork">
			<netNum>57</netNum>
			<netSave>0</netSave>
			<netSolve>1</netSolve>
			<E>100000</E>
			<v>4.900000e-01</v>
		</material>
		<material id="58" name="M58" type="PeriodicNetwork">
			<netNum>58</netNum>
			<netSave>0</netSave>
			<netSolve>1</netSolve>
			<E>100000</E>
			<v>4.900000e-01</v>
		</material>
		<material id="59" name="M59" type="PeriodicNetwork">
			<netNum>59</netNum>
			<netSave>0</netSave>
			<netSolve>1</netSolve>
			<E>100000</E>
			<v>4.900000e-01</v>
		</material>
		<material id="60" name="M60" type="PeriodicNetwork">
			<netNum>60</netNum>
			<netSave>0</netSave>
			<netSolve>1</netSolve>
			<E>100000</E>
			<v>4.900000e-01</v>
		</material>
		<material id="61" name="M61" type="PeriodicNetwork">
			<netNum>61</netNum>
			<netSave>0</netSave>
			<netSolve>1</netSolve>
			<E>100000</E>
			<v>4.900000e-01</v>
		</material>
		<material id="62" name="M62" type="PeriodicNetwork">
			<netNum>62</netNum>
			<netSave>0</netSave>
			<netSolve>1</netSolve>
			<E>100000</E>
			<v>4.900000e-01</v>
		</material>
		<material id="63" name="M63" type="PeriodicNetwork">
			<netNum>63</netNum>
			<netSave>0</netSave>
			<netSolve>1</netSolve>
			<E>100000</E>
			<v>4.900000e-01</v>
		</material>
		<material id="64" name="M64" type="PeriodicNetwork">
			<netNum>64</netNum>
			<netSave>0</netSave>
			<netSolve>1</netSolve>
			<E>100000</E>
			<v>4.900000e-01</v>
		</material>
		<material id="65" name="M65" type="PeriodicNetwork">
			<netNum>65</netNum>
			<netSave>0</netSave>
			<netSolve>1</netSolve>
			<E>100000</E>
			<v>4.900000e-01</v>
		</material>
		<material id="66" name="M66" type="PeriodicNetwork">
			<netNum>66</netNum>
			<netSave>0</netSave>
			<netSolve>1</netSolve>
			<E>100000</E>
			<v>4.900000e-01</v>
		</material>
		<material id="67" name="M67" type="PeriodicNetwork">
			<netNum>67</netNum>
			<netSave>0</netSave>
			<netSolve>1</netSolve>
			<E>100000</E>
			<v>4.900000e-01</v>
		</material>
		<material id="68" name="M68" type="PeriodicNetwork">
			<netNum>68</netNum>
			<netSave>0</netSave>
			<netSolve>1</netSolve>
			<E>100000</E>
			<v>4.900000e-01</v>
		</material>
		<material id="69" name="M69" type="PeriodicNetwork">
			<netNum>69</netNum>
			<netSave>0</netSave>
			<netSolve>1</netSolve>
			<E>100000</E>
			<v>4.900000e-01</v>
		</material>
		<material id="70" name="M70" type="PeriodicNetwork">
			<netNum>70</netNum>
			<netSave>0</netSave>
			<netSolve>1</netSolve>
			<E>100000</E>
			<v>4.900000e-01</v>
		</material>
		<material id="71" name="M71" type="PeriodicNetwork">
			<netNum>71</netNum>
			<netSave>0</netSave>
			<netSolve>1</netSolve>
			<E>100000</E>
			<v>4.900000e-01</v>
		</material>
		<material id="72" name="M72" type="PeriodicNetwork">
			<netNum>72</netNum>
			<netSave>0</netSave>
			<netSolve>1</netSolve>
			<E>100000</E>
			<v>4.900000e-01</v>
		</material>
		<material id="73" name="M73" type="PeriodicNetwork">
			<netNum>73</netNum>
			<netSave>0</netSave>
			<netSolve>1</netSolve>
			<E>100000</E>
			<v>4.900000e-01</v>
		</material>
		<material id="74" name="M74" type="PeriodicNetwork">
			<netNum>74</netNum>
			<netSave>0</netSave>
			<netSolve>1</netSolve>
			<E>100000</E>
			<v>4.900000e-01</v>
		</material>
		<material id="75" name="M75" type="PeriodicNetwork">
			<netNum>75</netNum>
			<netSave>0</netSave>
			<netSolve>1</netSolve>
			<E>100000</E>
			<v>4.900000e-01</v>
		</material>
		<material id="76" name="M76" type="PeriodicNetwork">
			<netNum>76</netNum>
			<netSave>0</netSave>
			<netSolve>1</netSolve>
			<E>100000</E>
			<v>4.900000e-01</v>
		</material>
		<material id="77" name="M77" type="PeriodicNetwork">
			<netNum>77</netNum>
			<netSave>0</netSave>
			<netSolve>1</netSolve>
			<E>100000</E>
			<v>4.900000e-01</v>
		</material>
		<material id="78" name="M78" type="PeriodicNetwork">
			<netNum>78</netNum>
			<netSave>0</netSave>
			<netSolve>1</netSolve>
			<E>100000</E>
			<v>4.900000e-01</v>
		</material>
		<material id="79" name="M79" type="PeriodicNetwork">
			<netNum>79</netNum>
			<netSave>0</netSave>
			<netSolve>1</netSolve>
			<E>100000</E>
			<v>4.900000e-01</v>
		</material>
		<material id="80" name="M80" type="PeriodicNetwork">
			<netNum>80</netNum>
			<netSave>0</netSave>
			<netSolve>1</netSolve>
			<E>100000</E>
			<v>4.900000e-01</v>
		</material>
		<material id="81" name="M81" type="PeriodicNetwork">
			<netNum>81</netNum>
			<netSave>0</netSave>
			<netSolve>1</netSolve>
			<E>100000</E>
			<v>4.900000e-01</v>
		</material>
		<material id="82" name="M82" type="PeriodicNetwork">
			<netNum>82</netNum>
			<netSave>0</netSave>
			<netSolve>1</netSolve>
			<E>100000</E>
			<v>4.900000e-01</v>
		</material>
		<material id="83" name="M83" type="PeriodicNetwork">
			<netNum>83</netNum>
			<netSave>0</netSave>
			<netSolve>1</netSolve>
			<E>100000</E>
			<v>4.900000e-01</v>
		</material>
		<material id="84" name="M84" type="PeriodicNetwork">
			<netNum>84</netNum>
			<netSave>0</netSave>
			<netSolve>1</netSolve>
			<E>100000</E>
			<v>4.900000e-01</v>
		</material>
		<material id="85" name="M85" type="PeriodicNetwork">
			<netNum>85</netNum>
			<netSave>0</netSave>
			<netSolve>1</netSolve>
			<E>100000</E>
			<v>4.900000e-01</v>
		</material>
		<material id="86" name="M86" type="PeriodicNetwork">
			<netNum>86</netNum>
			<netSave>0</netSave>
			<netSolve>1</netSolve>
			<E>100000</E>
			<v>4.900000e-01</v>
		</material>
		<material id="87" name="M87" type="PeriodicNetwork">
			<netNum>87</netNum>
			<netSave>0</netSave>
			<netSolve>1</netSolve>
			<E>100000</E>
			<v>4.900000e-01</v>
		</material>
		<material id="88" name="M88" type="PeriodicNetwork">
			<netNum>88</netNum>
			<netSave>0</netSave>
			<netSolve>1</netSolve>
			<E>100000</E>
			<v>4.900000e-01</v>
		</material>
		<material id="89" name="M89" type="PeriodicNetwork">
			<netNum>89</netNum>
			<netSave>0</netSave>
			<netSolve>1</netSolve>
			<E>100000</E>
			<v>4.900000e-01</v>
		</material>
		<material id="90" name="M90" type="PeriodicNetwork">
			<netNum>90</netNum>
			<netSave>0</netSave>
			<netSolve>1</netSolve>
			<E>100000</E>
			<v>4.900000e-01</v>
		</material>
		<material id="91" name="M91" type="PeriodicNetwork">
			<netNum>91</netNum>
			<netSave>0</netSave>
			<netSolve>1</netSolve>
			<E>100000</E>
			<v>4.900000e-01</v>
		</material>
		<material id="92" name="M92" type="PeriodicNetwork">
			<netNum>92</netNum>
			<netSave>0</netSave>
			<netSolve>1</netSolve>
			<E>100000</E>
			<v>4.900000e-01</v>
		</material>
		<material id="93" name="M93" type="PeriodicNetwork">
			<netNum>93</netNum>
			<netSave>0</netSave>
			<netSolve>1</netSolve>
			<E>100000</E>
			<v>4.900000e-01</v>
		</material>
		<material id="94" name="M94" type="PeriodicNetwork">
			<netNum>94</netNum>
			<netSave>0</netSave>
			<netSolve>1</netSolve>
			<E>100000</E>
			<v>4.900000e-01</v>
		</material>
		<material id="95" name="M95" type="PeriodicNetwork">
			<netNum>95</netNum>
			<netSave>0</netSave>
			<netSolve>1</netSolve>
			<E>100000</E>
			<v>4.900000e-01</v>
		</material>
		<material id="96" name="M96" type="PeriodicNetwork">
			<netNum>96</netNum>
			<netSave>0</netSave>
			<netSolve>1</netSolve>
			<E>100000</E>
			<v>4.900000e-01</v>
		</material>
		<material id="97" name="M97" type="PeriodicNetwork">
			<netNum>97</netNum>
			<netSave>0</netSave>
			<netSolve>1</netSolve>
			<E>100000</E>
			<v>4.900000e-01</v>
		</material>
		<material id="98" name="M98" type="PeriodicNetwork">
			<netNum>98</netNum>
			<netSave>0</netSave>
			<netSolve>1</netSolve>
			<E>100000</E>
			<v>4.900000e-01</v>
		</material>
		<material id="99" name="M99" type="PeriodicNetwork">
			<netNum>99</netNum>
			<netSave>0</netSave>
			<netSolve>1</netSolve>
			<E>100000</E>
			<v>4.900000e-01</v>
		</material>
		<material id="100" name="M100" type="PeriodicNetwork">
			<netNum>100</netNum>
			<netSave>0</netSave>
			<netSolve>1</netSolve>
			<E>100000</E>
			<v>4.900000e-01</v>
		</material>
		<material id="101" name="M101" type="PeriodicNetwork">
			<netNum>101</netNum>
			<netSave>0</netSave>
			<netSolve>1</netSolve>
			<E>100000</E>
			<v>4.900000e-01</v>
		</material>
		<material id="102" name="M102" type="PeriodicNetwork">
			<netNum>102</netNum>
			<netSave>0</netSave>
			<netSolve>1</netSolve>
			<E>100000</E>
			<v>4.900000e-01</v>
		</material>
		<material id="103" name="M103" type="PeriodicNetwork">
			<netNum>103</netNum>
			<netSave>0</netSave>
			<netSolve>1</netSolve>
			<E>100000</E>
			<v>4.900000e-01</v>
		</material>
		<material id="104" name="M104" type="PeriodicNetwork">
			<netNum>104</netNum>
			<netSave>0</netSave>
			<netSolve>1</netSolve>
			<E>100000</E>
			<v>4.900000e-01</v>
		</material>
		<material id="105" name="M105" type="PeriodicNetwork">
			<netNum>105</netNum>
			<netSave>0</netSave>
			<netSolve>1</netSolve>
			<E>100000</E>
			<v>4.900000e-01</v>
		</material>
		<material id="106" name="M106" type="PeriodicNetwork">
			<netNum>106</netNum>
			<netSave>0</netSave>
			<netSolve>1</netSolve>
			<E>100000</E>
			<v>4.900000e-01</v>
		</material>
		<material id="107" name="M107" type="PeriodicNetwork">
			<netNum>107</netNum>
			<netSave>0</netSave>
			<netSolve>1</netSolve>
			<E>100000</E>
			<v>4.900000e-01</v>
		</material>
		<material id="108" name="M108" type="PeriodicNetwork">
			<netNum>108</netNum>
			<netSave>0</netSave>
			<netSolve>1</netSolve>
			<E>100000</E>
			<v>4.900000e-01</v>
		</material>
		<material id="109" name="M109" type="PeriodicNetwork">
			<netNum>109</netNum>
			<netSave>0</netSave>
			<netSolve>1</netSolve>
			<E>100000</E>
			<v>4.900000e-01</v>
		</material>
		<material id="110" name="M110" type="PeriodicNetwork">
			<netNum>110</netNum>
			<netSave>0</netSave>
			<netSolve>1</netSolve>
			<E>100000</E>
			<v>4.900000e-01</v>
		</material>
		<material id="111" name="M111" type="PeriodicNetwork">
			<netNum>111</netNum>
			<netSave>0</netSave>
			<netSolve>1</netSolve>
			<E>100000</E>
			<v>4.900000e-01</v>
		</material>
		<material id="112" name="M112" type="PeriodicNetwork">
			<netNum>112</netNum>
			<netSave>0</netSave>
			<netSolve>1</netSolve>
			<E>100000</E>
			<v>4.900000e-01</v>
		</material>
		<material id="113" name="M113" type="PeriodicNetwork">
			<netNum>113</netNum>
			<netSave>0</netSave>
			<netSolve>1</netSolve>
			<E>100000</E>
			<v>4.900000e-01</v>
		</material>
		<material id="114" name="M114" type="PeriodicNetwork">
			<netNum>114</netNum>
			<netSave>0</netSave>
			<netSolve>1</netSolve>
			<E>100000</E>
			<v>4.900000e-01</v>
		</material>
		<material id="115" name="M115" type="PeriodicNetwork">
			<netNum>115</netNum>
			<netSave>0</netSave>
			<netSolve>1</netSolve>
			<E>100000</E>
			<v>4.900000e-01</v>
		</material>
		<material id="116" name="M116" type="PeriodicNetwork">
			<netNum>116</netNum>
			<netSave>0</netSave>
			<netSolve>1</netSolve>
			<E>100000</E>
			<v>4.900000e-01</v>
		</material>
		<material id="117" name="M117" type="PeriodicNetwork">
			<netNum>117</netNum>
			<netSave>0</netSave>
			<netSolve>1</netSolve>
			<E>100000</E>
			<v>4.900000e-01</v>
		</material>
		<material id="118" name="M118" type="PeriodicNetwork">
			<netNum>118</netNum>
			<netSave>0</netSave>
			<netSolve>1</netSolve>
			<E>100000</E>
			<v>4.900000e-01</v>
		</material>
		<material id="119" name="M119" type="PeriodicNetwork">
			<netNum>119</netNum>
			<netSave>0</netSave>
			<netSolve>1</netSolve>
			<E>100000</E>
			<v>4.900000e-01</v>
		</material>
		<material id="120" name="M120" type="PeriodicNetwork">
			<netNum>120</netNum>
			<netSave>0</netSave>
			<netSolve>1</netSolve>
			<E>100000</E>
			<v>4.900000e-01</v>
		</material>
		<material id="121" name="M121" type="PeriodicNetwork">
			<netNum>121</netNum>
			<netSave>0</netSave>
			<netSolve>1</netSolve>
			<E>100000</E>
			<v>4.900000e-01</v>
		</material>
		<material id="122" name="M122" type="PeriodicNetwork">
			<netNum>122</netNum>
			<netSave>0</netSave>
			<netSolve>1</netSolve>
			<E>100000</E>
			<v>4.900000e-01</v>
		</material>
		<material id="123" name="M123" type="PeriodicNetwork">
			<netNum>123</netNum>
			<netSave>0</netSave>
			<netSolve>1</netSolve>
			<E>100000</E>
			<v>4.900000e-01</v>
		</material>
		<material id="124" name="M124" type="PeriodicNetwork">
			<netNum>124</netNum>
			<netSave>0</netSave>
			<netSolve>1</netSolve>
			<E>100000</E>
			<v>4.900000e-01</v>
		</material>
		<material id="125" name="M125" type="PeriodicNetwork">
			<netNum>125</netNum>
			<netSave>0</netSave>
			<netSolve>1</netSolve>
			<E>100000</E>
			<v>4.900000e-01</v>
		</material>
		<material id="126" name="M126" type="PeriodicNetwork">
			<netNum>126</netNum>
			<netSave>0</netSave>
			<netSolve>1</netSolve>
			<E>100000</E>
			<v>4.900000e-01</v>
		</material>
		<material id="127" name="M127" type="PeriodicNetwork">
			<netNum>127</netNum>
			<netSave>0</netSave>
			<netSolve>1</netSolve>
			<E>100000</E>
			<v>4.900000e-01</v>
		</material>
		<material id="128" name="M128" type="PeriodicNetwork">
			<netNum>128</netNum>
			<netSave>0</netSave>
			<netSolve>1</netSolve>
			<E>100000</E>
			<v>4.900000e-01</v>
		</material>
		<material id="129" name="M129" type="PeriodicNetwork">
			<netNum>129</netNum>
			<netSave>0</netSave>
			<netSolve>1</netSolve>
			<E>100000</E>
			<v>4.900000e-01</v>
		</material>
		<material id="130" name="M130" type="PeriodicNetwork">
			<netNum>130</netNum>
			<netSave>0</netSave>
			<netSolve>1</netSolve>
			<E>100000</E>
			<v>4.900000e-01</v>
		</material>
		<material id="131" name="M131" type="PeriodicNetwork">
			<netNum>131</netNum>
			<netSave>0</netSave>
			<netSolve>1</netSolve>
			<E>100000</E>
			<v>4.900000e-01</v>
		</material>
		<material id="132" name="M132" type="PeriodicNetwork">
			<netNum>132</netNum>
			<netSave>0</netSave>
			<netSolve>1</netSolve>
			<E>100000</E>
			<v>4.900000e-01</v>
		</material>
		<material id="133" name="M133" type="PeriodicNetwork">
			<netNum>133</netNum>
			<netSave>0</netSave>
			<netSolve>1</netSolve>
			<E>100000</E>
			<v>4.900000e-01</v>
		</material>
		<material id="134" name="M134" type="PeriodicNetwork">
			<netNum>134</netNum>
			<netSave>0</netSave>
			<netSolve>1</netSolve>
			<E>100000</E>
			<v>4.900000e-01</v>
		</material>
		<material id="135" name="M135" type="PeriodicNetwork">
			<netNum>135</netNum>
			<netSave>0</netSave>
			<netSolve>1</netSolve>
			<E>100000</E>
			<v>4.900000e-01</v>
		</material>
		<material id="136" name="M136" type="PeriodicNetwork">
			<netNum>136</netNum>
			<netSave>0</netSave>
			<netSolve>1</netSolve>
			<E>100000</E>
			<v>4.900000e-01</v>
		</material>
		<material id="137" name="M137" type="PeriodicNetwork">
			<netNum>137</netNum>
			<netSave>0</netSave>
			<netSolve>1</netSolve>
			<E>100000</E>
			<v>4.900000e-01</v>
		</material>
		<material id="138" name="M138" type="PeriodicNetwork">
			<netNum>138</netNum>
			<netSave>0</netSave>
			<netSolve>1</netSolve>
			<E>100000</E>
			<v>4.900000e-01</v>
		</material>
		<material id="139" name="M139" type="PeriodicNetwork">
			<netNum>139</netNum>
			<netSave>0</netSave>
			<netSolve>1</netSolve>
			<E>100000</E>
			<v>4.900000e-01</v>
		</material>
		<material id="140" name="M140" type="PeriodicNetwork">
			<netNum>140</netNum>
			<netSave>0</netSave>
			<netSolve>1</netSolve>
			<E>100000</E>
			<v>4.900000e-01</v>
		</material>
		<material id="141" name="M141" type="PeriodicNetwork">
			<netNum>141</netNum>
			<netSave>0</netSave>
			<netSolve>1</netSolve>
			<E>100000</E>
			<v>4.900000e-01</v>
		</material>
		<material id="142" name="M142" type="PeriodicNetwork">
			<netNum>142</netNum>
			<netSave>0</netSave>
			<netSolve>1</netSolve>
			<E>100000</E>
			<v>4.900000e-01</v>
		</material>
		<material id="143" name="M143" type="PeriodicNetwork">
			<netNum>143</netNum>
			<netSave>0</netSave>
			<netSolve>1</netSolve>
			<E>100000</E>
			<v>4.900000e-01</v>
		</material>
		<material id="144" name="M144" type="PeriodicNetwork">
			<netNum>144</netNum>
			<netSave>0</netSave>
			<netSolve>1</netSolve>
			<E>100000</E>
			<v>4.900000e-01</v>
		</material>
		<material id="145" name="M145" type="PeriodicNetwork">
			<netNum>145</netNum>
			<netSave>0</netSave>
			<netSolve>1</netSolve>
			<E>100000</E>
			<v>4.900000e-01</v>
		</material>
		<material id="146" name="M146" type="PeriodicNetwork">
			<netNum>146</netNum>
			<netSave>0</netSave>
			<netSolve>1</netSolve>
			<E>100000</E>
			<v>4.900000e-01</v>
		</material>
		<material id="147" name="M147" type="PeriodicNetwork">
			<netNum>147</netNum>
			<netSave>0</netSave>
			<netSolve>1</netSolve>
			<E>100000</E>
			<v>4.900000e-01</v>
		</material>
		<material id="148" name="M148" type="PeriodicNetwork">
			<netNum>148</netNum>
			<netSave>0</netSave>
			<netSolve>1</netSolve>
			<E>100000</E>
			<v>4.900000e-01</v>
		</material>
		<material id="149" name="M149" type="PeriodicNetwork">
			<netNum>149</netNum>
			<netSave>0</netSave>
			<netSolve>1</netSolve>
			<E>100000</E>
			<v>4.900000e-01</v>
		</material>
		<material id="150" name="M150" type="PeriodicNetwork">
			<netNum>150</netNum>
			<netSave>0</netSave>
			<netSolve>1</netSolve>
			<E>100000</E>
			<v>4.900000e-01</v>
		</material>
		<material id="151" name="M151" type="PeriodicNetwork">
			<netNum>151</netNum>
			<netSave>0</netSave>
			<netSolve>1</netSolve>
			<E>100000</E>
			<v>4.900000e-01</v>
		</material>
		<material id="152" name="M152" type="PeriodicNetwork">
			<netNum>152</netNum>
			<netSave>0</netSave>
			<netSolve>1</netSolve>
			<E>100000</E>
			<v>4.900000e-01</v>
		</material>
		<material id="153" name="M153" type="PeriodicNetwork">
			<netNum>153</netNum>
			<netSave>0</netSave>
			<netSolve>1</netSolve>
			<E>100000</E>
			<v>4.900000e-01</v>
		</material>
		<material id="154" name="M154" type="PeriodicNetwork">
			<netNum>154</netNum>
			<netSave>0</netSave>
			<netSolve>1</netSolve>
			<E>100000</E>
			<v>4.900000e-01</v>
		</material>
		<material id="155" name="M155" type="PeriodicNetwork">
			<netNum>155</netNum>
			<netSave>0</netSave>
			<netSolve>1</netSolve>
			<E>100000</E>
			<v>4.900000e-01</v>
		</material>
		<material id="156" name="M156" type="PeriodicNetwork">
			<netNum>156</netNum>
			<netSave>0</netSave>
			<netSolve>1</netSolve>
			<E>100000</E>
			<v>4.900000e-01</v>
		</material>
		<material id="157" name="M157" type="PeriodicNetwork">
			<netNum>157</netNum>
			<netSave>0</netSave>
			<netSolve>1</netSolve>
			<E>100000</E>
			<v>4.900000e-01</v>
		</material>
		<material id="158" name="M158" type="PeriodicNetwork">
			<netNum>158</netNum>
			<netSave>0</netSave>
			<netSolve>1</netSolve>
			<E>100000</E>
			<v>4.900000e-01</v>
		</material>
		<material id="159" name="M159" type="PeriodicNetwork">
			<netNum>159</netNum>
			<netSave>0</netSave>
			<netSolve>1</netSolve>
			<E>100000</E>
			<v>4.900000e-01</v>
		</material>
		<material id="160" name="M160" type="PeriodicNetwork">
			<netNum>160</netNum>
			<netSave>0</netSave>
			<netSolve>1</netSolve>
			<E>100000</E>
			<v>4.900000e-01</v>
		</material>
		<material id="161" name="M161" type="PeriodicNetwork">
			<netNum>161</netNum>
			<netSave>0</netSave>
			<netSolve>1</netSolve>
			<E>100000</E>
			<v>4.900000e-01</v>
		</material>
		<material id="162" name="M162" type="PeriodicNetwork">
			<netNum>162</netNum>
			<netSave>0</netSave>
			<netSolve>1</netSolve>
			<E>100000</E>
			<v>4.900000e-01</v>
		</material>
		<material id="163" name="M163" type="PeriodicNetwork">
			<netNum>163</netNum>
			<netSave>0</netSave>
			<netSolve>1</netSolve>
			<E>100000</E>
			<v>4.900000e-01</v>
		</material>
		<material id="164" name="M164" type="PeriodicNetwork">
			<netNum>164</netNum>
			<netSave>0</netSave>
			<netSolve>1</netSolve>
			<E>100000</E>
			<v>4.900000e-01</v>
		</material>
		<material id="165" name="M165" type="PeriodicNetwork">
			<netNum>165</netNum>
			<netSave>0</netSave>
			<netSolve>1</netSolve>
			<E>100000</E>
			<v>4.900000e-01</v>
		</material>
		<material id="166" name="M166" type="PeriodicNetwork">
			<netNum>166</netNum>
			<netSave>0</netSave>
			<netSolve>1</netSolve>
			<E>100000</E>
			<v>4.900000e-01</v>
		</material>
		<material id="167" name="M167" type="PeriodicNetwork">
			<netNum>167</netNum>
			<netSave>0</netSave>
			<netSolve>1</netSolve>
			<E>100000</E>
			<v>4.900000e-01</v>
		</material>
		<material id="168" name="M168" type="PeriodicNetwork">
			<netNum>168</netNum>
			<netSave>0</netSave>
			<netSolve>1</netSolve>
			<E>100000</E>
			<v>4.900000e-01</v>
		</material>
		<material id="169" name="M169" type="PeriodicNetwork">
			<netNum>169</netNum>
			<netSave>0</netSave>
			<netSolve>1</netSolve>
			<E>100000</E>
			<v>4.900000e-01</v>
		</material>
		<material id="170" name="M170" type="PeriodicNetwork">
			<netNum>170</netNum>
			<netSave>0</netSave>
			<netSolve>1</netSolve>
			<E>100000</E>
			<v>4.900000e-01</v>
		</material>
		<material id="171" name="M171" type="PeriodicNetwork">
			<netNum>171</netNum>
			<netSave>0</netSave>
			<netSolve>1</netSolve>
			<E>100000</E>
			<v>4.900000e-01</v>
		</material>
		<material id="172" name="M172" type="PeriodicNetwork">
			<netNum>172</netNum>
			<netSave>0</netSave>
			<netSolve>1</netSolve>
			<E>100000</E>
			<v>4.900000e-01</v>
		</material>
		<material id="173" name="M173" type="PeriodicNetwork">
			<netNum>173</netNum>
			<netSave>0</netSave>
			<netSolve>1</netSolve>
			<E>100000</E>
			<v>4.900000e-01</v>
		</material>
		<material id="174" name="M174" type="PeriodicNetwork">
			<netNum>174</netNum>
			<netSave>0</netSave>
			<netSolve>1</netSolve>
			<E>100000</E>
			<v>4.900000e-01</v>
		</material>
		<material id="175" name="M175" type="PeriodicNetwork">
			<netNum>175</netNum>
			<netSave>0</netSave>
			<netSolve>1</netSolve>
			<E>100000</E>
			<v>4.900000e-01</v>
		</material>
		<material id="176" name="M176" type="PeriodicNetwork">
			<netNum>176</netNum>
			<netSave>0</netSave>
			<netSolve>1</netSolve>
			<E>100000</E>
			<v>4.900000e-01</v>
		</material>
		<material id="177" name="M177" type="PeriodicNetwork">
			<netNum>177</netNum>
			<netSave>0</netSave>
			<netSolve>1</netSolve>
			<E>100000</E>
			<v>4.900000e-01</v>
		</material>
		<material id="178" name="M178" type="PeriodicNetwork">
			<netNum>178</netNum>
			<netSave>0</netSave>
			<netSolve>1</netSolve>
			<E>100000</E>
			<v>4.900000e-01</v>
		</material>
		<material id="179" name="M179" type="PeriodicNetwork">
			<netNum>179</netNum>
			<netSave>0</netSave>
			<netSolve>1</netSolve>
			<E>100000</E>
			<v>4.900000e-01</v>
		</material>
		<material id="180" name="M180" type="PeriodicNetwork">
			<netNum>180</netNum>
			<netSave>0</netSave>
			<netSolve>1</netSolve>
			<E>100000</E>
			<v>4.900000e-01</v>
		</material>
		<material id="181" name="M181" type="PeriodicNetwork">
			<netNum>181</netNum>
			<netSave>0</netSave>
			<netSolve>1</netSolve>
			<E>100000</E>
			<v>4.900000e-01</v>
		</material>
		<material id="182" name="M182" type="PeriodicNetwork">
			<netNum>182</netNum>
			<netSave>0</netSave>
			<netSolve>1</netSolve>
			<E>100000</E>
			<v>4.900000e-01</v>
		</material>
		<material id="183" name="M183" type="PeriodicNetwork">
			<netNum>183</netNum>
			<netSave>0</netSave>
			<netSolve>1</netSolve>
			<E>100000</E>
			<v>4.900000e-01</v>
		</material>
		<material id="184" name="M184" type="PeriodicNetwork">
			<netNum>184</netNum>
			<netSave>0</netSave>
			<netSolve>1</netSolve>
			<E>100000</E>
			<v>4.900000e-01</v>
		</material>
		<material id="185" name="M185" type="PeriodicNetwork">
			<netNum>185</netNum>
			<netSave>0</netSave>
			<netSolve>1</netSolve>
			<E>100000</E>
			<v>4.900000e-01</v>
		</material>
		<material id="186" name="M186" type="PeriodicNetwork">
			<netNum>186</netNum>
			<netSave>0</netSave>
			<netSolve>1</netSolve>
			<E>100000</E>
			<v>4.900000e-01</v>
		</material>
		<material id="187" name="M187" type="PeriodicNetwork">
			<netNum>187</netNum>
			<netSave>0</netSave>
			<netSolve>1</netSolve>
			<E>100000</E>
			<v>4.900000e-01</v>
		</material>
		<material id="188" name="M188" type="PeriodicNetwork">
			<netNum>188</netNum>
			<netSave>0</netSave>
			<netSolve>1</netSolve>
			<E>100000</E>
			<v>4.900000e-01</v>
		</material>
		<material id="189" name="M189" type="PeriodicNetwork">
			<netNum>189</netNum>
			<netSave>0</netSave>
			<netSolve>1</netSolve>
			<E>100000</E>
			<v>4.900000e-01</v>
		</material>
		<material id="190" name="M190" type="PeriodicNetwork">
			<netNum>190</netNum>
			<netSave>0</netSave>
			<netSolve>1</netSolve>
			<E>100000</E>
			<v>4.900000e-01</v>
		</material>
		<material id="191" name="M191" type="PeriodicNetwork">
			<netNum>191</netNum>
			<netSave>0</netSave>
			<netSolve>1</netSolve>
			<E>100000</E>
			<v>4.900000e-01</v>
		</material>
		<material id="192" name="M192" type="PeriodicNetwork">
			<netNum>192</netNum>
			<netSave>0</netSave>
			<netSolve>1</netSolve>
			<E>100000</E>
			<v>4.900000e-01</v>
		</material>
		<material id="193" name="M193" type="PeriodicNetwork">
			<netNum>193</netNum>
			<netSave>0</netSave>
			<netSolve>1</netSolve>
			<E>100000</E>
			<v>4.900000e-01</v>
		</material>
		<material id="194" name="M194" type="PeriodicNetwork">
			<netNum>194</netNum>
			<netSave>0</netSave>
			<netSolve>1</netSolve>
			<E>100000</E>
			<v>4.900000e-01</v>
		</material>
		<material id="195" name="M195" type="PeriodicNetwork">
			<netNum>195</netNum>
			<netSave>0</netSave>
			<netSolve>1</netSolve>
			<E>100000</E>
			<v>4.900000e-01</v>
		</material>
		<material id="196" name="M196" type="PeriodicNetwork">
			<netNum>196</netNum>
			<netSave>0</netSave>
			<netSolve>1</netSolve>
			<E>100000</E>
			<v>4.900000e-01</v>
		</material>
		<material id="197" name="M197" type="PeriodicNetwork">
			<netNum>197</netNum>
			<netSave>0</netSave>
			<netSolve>1</netSolve>
			<E>100000</E>
			<v>4.900000e-01</v>
		</material>
		<material id="198" name="M198" type="PeriodicNetwork">
			<netNum>198</netNum>
			<netSave>0</netSave>
			<netSolve>1</netSolve>
			<E>100000</E>
			<v>4.900000e-01</v>
		</material>
		<material id="199" name="M199" type="PeriodicNetwork">
			<netNum>199</netNum>
			<netSave>0</netSave>
			<netSolve>1</netSolve>
			<E>100000</E>
			<v>4.900000e-01</v>
		</material>
		<material id="200" name="M200" type="PeriodicNetwork">
			<netNum>200</netNum>
			<netSave>0</netSave>
			<netSolve>1</netSolve>
			<E>100000</E>
			<v>4.900000e-01</v>
		</material>
		<material id="201" name="M201" type="PeriodicNetwork">
			<netNum>201</netNum>
			<netSave>0</netSave>
			<netSolve>1</netSolve>
			<E>100000</E>
			<v>4.900000e-01</v>
		</material>
		<material id="202" name="M202" type="PeriodicNetwork">
			<netNum>202</netNum>
			<netSave>0</netSave>
			<netSolve>1</netSolve>
			<E>100000</E>
			<v>4.900000e-01</v>
		</material>
		<material id="203" name="M203" type="PeriodicNetwork">
			<netNum>203</netNum>
			<netSave>0</netSave>
			<netSolve>1</netSolve>
			<E>100000</E>
			<v>4.900000e-01</v>
		</material>
		<material id="204" name="M204" type="PeriodicNetwork">
			<netNum>204</netNum>
			<netSave>0</netSave>
			<netSolve>1</netSolve>
			<E>100000</E>
			<v>4.900000e-01</v>
		</material>
		<material id="205" name="M205" type="PeriodicNetwork">
			<netNum>205</netNum>
			<netSave>0</netSave>
			<netSolve>1</netSolve>
			<E>100000</E>
			<v>4.900000e-01</v>
		</material>
		<material id="206" name="M206" type="PeriodicNetwork">
			<netNum>206</netNum>
			<netSave>0</netSave>
			<netSolve>1</netSolve>
			<E>100000</E>
			<v>4.900000e-01</v>
		</material>
		<material id="207" name="M207" type="PeriodicNetwork">
			<netNum>207</netNum>
			<netSave>0</netSave>
			<netSolve>1</netSolve>
			<E>100000</E>
			<v>4.900000e-01</v>
		</material>
		<material id="208" name="M208" type="PeriodicNetwork">
			<netNum>208</netNum>
			<netSave>0</netSave>
			<netSolve>1</netSolve>
			<E>100000</E>
			<v>4.900000e-01</v>
		</material>
		<material id="209" name="M209" type="PeriodicNetwork">
			<netNum>209</netNum>
			<netSave>0</netSave>
			<netSolve>1</netSolve>
			<E>100000</E>
			<v>4.900000e-01</v>
		</material>
		<material id="210" name="M210" type="PeriodicNetwork">
			<netNum>210</netNum>
			<netSave>0</netSave>
			<netSolve>1</netSolve>
			<E>100000</E>
			<v>4.900000e-01</v>
		</material>
		<material id="211" name="M211" type="PeriodicNetwork">
			<netNum>211</netNum>
			<netSave>0</netSave>
			<netSolve>1</netSolve>
			<E>100000</E>
			<v>4.900000e-01</v>
		</material>
		<material id="212" name="M212" type="PeriodicNetwork">
			<netNum>212</netNum>
			<netSave>0</netSave>
			<netSolve>1</netSolve>
			<E>100000</E>
			<v>4.900000e-01</v>
		</material>
		<material id="213" name="M213" type="PeriodicNetwork">
			<netNum>213</netNum>
			<netSave>0</netSave>
			<netSolve>1</netSolve>
			<E>100000</E>
			<v>4.900000e-01</v>
		</material>
		<material id="214" name="M214" type="PeriodicNetwork">
			<netNum>214</netNum>
			<netSave>0</netSave>
			<netSolve>1</netSolve>
			<E>100000</E>
			<v>4.900000e-01</v>
		</material>
		<material id="215" name="M215" type="PeriodicNetwork">
			<netNum>215</netNum>
			<netSave>0</netSave>
			<netSolve>1</netSolve>
			<E>100000</E>
			<v>4.900000e-01</v>
		</material>
		<material id="216" name="M216" type="PeriodicNetwork">
			<netNum>216</netNum>
			<netSave>0</netSave>
			<netSolve>1</netSolve>
			<E>100000</E>
			<v>4.900000e-01</v>
		</material>
		<material id="217" name="M217" type="PeriodicNetwork">
			<netNum>217</netNum>
			<netSave>0</netSave>
			<netSolve>1</netSolve>
			<E>100000</E>
			<v>4.900000e-01</v>
		</material>
		<material id="218" name="M218" type="PeriodicNetwork">
			<netNum>218</netNum>
			<netSave>0</netSave>
			<netSolve>1</netSolve>
			<E>100000</E>
			<v>4.900000e-01</v>
		</material>
		<material id="219" name="M219" type="PeriodicNetwork">
			<netNum>219</netNum>
			<netSave>0</netSave>
			<netSolve>1</netSolve>
			<E>100000</E>
			<v>4.900000e-01</v>
		</material>
		<material id="220" name="M220" type="PeriodicNetwork">
			<netNum>220</netNum>
			<netSave>0</netSave>
			<netSolve>1</netSolve>
			<E>100000</E>
			<v>4.900000e-01</v>
		</material>
		<material id="221" name="M221" type="PeriodicNetwork">
			<netNum>221</netNum>
			<netSave>0</netSave>
			<netSolve>1</netSolve>
			<E>100000</E>
			<v>4.900000e-01</v>
		</material>
		<material id="222" name="M222" type="PeriodicNetwork">
			<netNum>222</netNum>
			<netSave>0</netSave>
			<netSolve>1</netSolve>
			<E>100000</E>
			<v>4.900000e-01</v>
		</material>
		<material id="223" name="M223" type="PeriodicNetwork">
			<netNum>223</netNum>
			<netSave>0</netSave>
			<netSolve>1</netSolve>
			<E>100000</E>
			<v>4.900000e-01</v>
		</material>
		<material id="224" name="M224" type="PeriodicNetwork">
			<netNum>224</netNum>
			<netSave>0</netSave>
			<netSolve>1</netSolve>
			<E>100000</E>
			<v>4.900000e-01</v>
		</material>
		<material id="225" name="M225" type="PeriodicNetwork">
			<netNum>225</netNum>
			<netSave>0</netSave>
			<netSolve>1</netSolve>
			<E>100000</E>
			<v>4.900000e-01</v>
		</material>
		<material id="226" name="M226" type="PeriodicNetwork">
			<netNum>226</netNum>
			<netSave>0</netSave>
			<netSolve>1</netSolve>
			<E>100000</E>
			<v>4.900000e-01</v>
		</material>
		<material id="227" name="M227" type="PeriodicNetwork">
			<netNum>227</netNum>
			<netSave>0</netSave>
			<netSolve>1</netSolve>
			<E>100000</E>
			<v>4.900000e-01</v>
		</material>
		<material id="228" name="M228" type="PeriodicNetwork">
			<netNum>228</netNum>
			<netSave>0</netSave>
			<netSolve>1</netSolve>
			<E>100000</E>
			<v>4.900000e-01</v>
		</material>
		<material id="229" name="M229" type="PeriodicNetwork">
			<netNum>229</netNum>
			<netSave>0</netSave>
			<netSolve>1</netSolve>
			<E>100000</E>
			<v>4.900000e-01</v>
		</material>
		<material id="230" name="M230" type="PeriodicNetwork">
			<netNum>230</netNum>
			<netSave>0</netSave>
			<netSolve>1</netSolve>
			<E>100000</E>
			<v>4.900000e-01</v>
		</material>
		<material id="231" name="M231" type="PeriodicNetwork">
			<netNum>231</netNum>
			<netSave>0</netSave>
			<netSolve>1</netSolve>
			<E>100000</E>
			<v>4.900000e-01</v>
		</material>
		<material id="232" name="M232" type="PeriodicNetwork">
			<netNum>232</netNum>
			<netSave>0</netSave>
			<netSolve>1</netSolve>
			<E>100000</E>
			<v>4.900000e-01</v>
		</material>
		<material id="233" name="M233" type="PeriodicNetwork">
			<netNum>233</netNum>
			<netSave>0</netSave>
			<netSolve>1</netSolve>
			<E>100000</E>
			<v>4.900000e-01</v>
		</material>
		<material id="234" name="M234" type="PeriodicNetwork">
			<netNum>234</netNum>
			<netSave>0</netSave>
			<netSolve>1</netSolve>
			<E>100000</E>
			<v>4.900000e-01</v>
		</material>
		<material id="235" name="M235" type="PeriodicNetwork">
			<netNum>235</netNum>
			<netSave>0</netSave>
			<netSolve>1</netSolve>
			<E>100000</E>
			<v>4.900000e-01</v>
		</material>
		<material id="236" name="M236" type="PeriodicNetwork">
			<netNum>236</netNum>
			<netSave>0</netSave>
			<netSolve>1</netSolve>
			<E>100000</E>
			<v>4.900000e-01</v>
		</material>
		<material id="237" name="M237" type="PeriodicNetwork">
			<netNum>237</netNum>
			<netSave>0</netSave>
			<netSolve>1</netSolve>
			<E>100000</E>
			<v>4.900000e-01</v>
		</material>
		<material id="238" name="M238" type="PeriodicNetwork">
			<netNum>238</netNum>
			<netSave>0</netSave>
			<netSolve>1</netSolve>
			<E>100000</E>
			<v>4.900000e-01</v>
		</material>
		<material id="239" name="M239" type="PeriodicNetwork">
			<netNum>239</netNum>
			<netSave>0</netSave>
			<netSolve>1</netSolve>
			<E>100000</E>
			<v>4.900000e-01</v>
		</material>
		<material id="240" name="M240" type="PeriodicNetwork">
			<netNum>240</netNum>
			<netSave>0</netSave>
			<netSolve>1</netSolve>
			<E>100000</E>
			<v>4.900000e-01</v>
		</material>
		<material id="241" name="M241" type="PeriodicNetwork">
			<netNum>241</netNum>
			<netSave>0</netSave>
			<netSolve>1</netSolve>
			<E>100000</E>
			<v>4.900000e-01</v>
		</material>
		<material id="242" name="M242" type="PeriodicNetwork">
			<netNum>242</netNum>
			<netSave>0</netSave>
			<netSolve>1</netSolve>
			<E>100000</E>
			<v>4.900000e-01</v>
		</material>
		<material id="243" name="M243" type="PeriodicNetwork">
			<netNum>243</netNum>
			<netSave>0</netSave>
			<netSolve>1</netSolve>
			<E>100000</E>
			<v>4.900000e-01</v>
		</material>
		<material id="244" name="M244" type="PeriodicNetwork">
			<netNum>244</netNum>
			<netSave>0</netSave>
			<netSolve>1</netSolve>
			<E>100000</E>
			<v>4.900000e-01</v>
		</material>
		<material id="245" name="M245" type="PeriodicNetwork">
			<netNum>245</netNum>
			<netSave>0</netSave>
			<netSolve>1</netSolve>
			<E>100000</E>
			<v>4.900000e-01</v>
		</material>
		<material id="246" name="M246" type="PeriodicNetwork">
			<netNum>246</netNum>
			<netSave>0</netSave>
			<netSolve>1</netSolve>
			<E>100000</E>
			<v>4.900000e-01</v>
		</material>
		<material id="247" name="M247" type="PeriodicNetwork">
			<netNum>247</netNum>
			<netSave>0</netSave>
			<netSolve>1</netSolve>
			<E>100000</E>
			<v>4.900000e-01</v>
		</material>
		<material id="248" name="M248" type="PeriodicNetwork">
			<netNum>248</netNum>
			<netSave>0</netSave>
			<netSolve>1</netSolve>
			<E>100000</E>
			<v>4.900000e-01</v>
		</material>
		<material id="249" name="M249" type="PeriodicNetwork">
			<netNum>249</netNum>
			<netSave>0</netSave>
			<netSolve>1</netSolve>
			<E>100000</E>
			<v>4.900000e-01</v>
		</material>
		<material id="250" name="M250" type="PeriodicNetwork">
			<netNum>250</netNum>
			<netSave>0</netSave>
			<netSolve>1</netSolve>
			<E>100000</E>
			<v>4.900000e-01</v>
		</material>
		<material id="251" name="M251" type="PeriodicNetwork">
			<netNum>251</netNum>
			<netSave>0</netSave>
			<netSolve>1</netSolve>
			<E>100000</E>
			<v>4.900000e-01</v>
		</material>
		<material id="252" name="M252" type="PeriodicNetwork">
			<netNum>252</netNum>
			<netSave>0</netSave>
			<netSolve>1</netSolve>
			<E>100000</E>
			<v>4.900000e-01</v>
		</material>
		<material id="253" name="M253" type="PeriodicNetwork">
			<netNum>253</netNum>
			<netSave>0</netSave>
			<netSolve>1</netSolve>
			<E>100000</E>
			<v>4.900000e-01</v>
		</material>
		<material id="254" name="M254" type="PeriodicNetwork">
			<netNum>254</netNum>
			<netSave>0</netSave>
			<netSolve>1</netSolve>
			<E>100000</E>
			<v>4.900000e-01</v>
		</material>
		<material id="255" name="M255" type="PeriodicNetwork">
			<netNum>255</netNum>
			<netSave>0</netSave>
			<netSolve>1</netSolve>
			<E>100000</E>
			<v>4.900000e-01</v>
		</material>
		<material id="256" name="M256" type="PeriodicNetwork">
			<netNum>256</netNum>
			<netSave>0</netSave>
			<netSolve>1</netSolve>
			<E>100000</E>
			<v>4.900000e-01</v>
		</material>
		<material id="257" name="M257" type="PeriodicNetwork">
			<netNum>257</netNum>
			<netSave>0</netSave>
			<netSolve>1</netSolve>
			<E>100000</E>
			<v>4.900000e-01</v>
		</material>
		<material id="258" name="M258" type="PeriodicNetwork">
			<netNum>258</netNum>
			<netSave>0</netSave>
			<netSolve>1</netSolve>
			<E>100000</E>
			<v>4.900000e-01</v>
		</material>
		<material id="259" name="M259" type="PeriodicNetwork">
			<netNum>259</netNum>
			<netSave>0</netSave>
			<netSolve>1</netSolve>
			<E>100000</E>
			<v>4.900000e-01</v>
		</material>
		<material id="260" name="M260" type="PeriodicNetwork">
			<netNum>260</netNum>
			<netSave>0</netSave>
			<netSolve>1</netSolve>
			<E>100000</E>
			<v>4.900000e-01</v>
		</material>
		<material id="261" name="M261" type="PeriodicNetwork">
			<netNum>261</netNum>
			<netSave>0</netSave>
			<netSolve>1</netSolve>
			<E>100000</E>
			<v>4.900000e-01</v>
		</material>
		<material id="262" name="M262" type="PeriodicNetwork">
			<netNum>262</netNum>
			<netSave>0</netSave>
			<netSolve>1</netSolve>
			<E>100000</E>
			<v>4.900000e-01</v>
		</material>
		<material id="263" name="M263" type="PeriodicNetwork">
			<netNum>263</netNum>
			<netSave>0</netSave>
			<netSolve>1</netSolve>
			<E>100000</E>
			<v>4.900000e-01</v>
		</material>
		<material id="264" name="M264" type="PeriodicNetwork">
			<netNum>264</netNum>
			<netSave>0</netSave>
			<netSolve>1</netSolve>
			<E>100000</E>
			<v>4.900000e-01</v>
		</material>
		<material id="265" name="M265" type="PeriodicNetwork">
			<netNum>265</netNum>
			<netSave>0</netSave>
			<netSolve>1</netSolve>
			<E>100000</E>
			<v>4.900000e-01</v>
		</material>
		<material id="266" name="M266" type="PeriodicNetwork">
			<netNum>266</netNum>
			<netSave>0</netSave>
			<netSolve>1</netSolve>
			<E>100000</E>
			<v>4.900000e-01</v>
		</material>
		<material id="267" name="M267" type="PeriodicNetwork">
			<netNum>267</netNum>
			<netSave>0</netSave>
			<netSolve>1</netSolve>
			<E>100000</E>
			<v>4.900000e-01</v>
		</material>
		<material id="268" name="M268" type="PeriodicNetwork">
			<netNum>268</netNum>
			<netSave>0</netSave>
			<netSolve>1</netSolve>
			<E>100000</E>
			<v>4.900000e-01</v>
		</material>
		<material id="269" name="M269" type="PeriodicNetwork">
			<netNum>269</netNum>
			<netSave>0</netSave>
			<netSolve>1</netSolve>
			<E>100000</E>
			<v>4.900000e-01</v>
		</material>
		<material id="270" name="M270" type="PeriodicNetwork">
			<netNum>270</netNum>
			<netSave>0</netSave>
			<netSolve>1</netSolve>
			<E>100000</E>
			<v>4.900000e-01</v>
		</material>
		<material id="271" name="M271" type="PeriodicNetwork">
			<netNum>271</netNum>
			<netSave>0</netSave>
			<netSolve>1</netSolve>
			<E>100000</E>
			<v>4.900000e-01</v>
		</material>
		<material id="272" name="M272" type="PeriodicNetwork">
			<netNum>272</netNum>
			<netSave>0</netSave>
			<netSolve>1</netSolve>
			<E>100000</E>
			<v>4.900000e-01</v>
		</material>
		<material id="273" name="M273" type="PeriodicNetwork">
			<netNum>273</netNum>
			<netSave>0</netSave>
			<netSolve>1</netSolve>
			<E>100000</E>
			<v>4.900000e-01</v>
		</material>
		<material id="274" name="M274" type="PeriodicNetwork">
			<netNum>274</netNum>
			<netSave>0</netSave>
			<netSolve>1</netSolve>
			<E>100000</E>
			<v>4.900000e-01</v>
		</material>
		<material id="275" name="M275" type="PeriodicNetwork">
			<netNum>275</netNum>
			<netSave>0</netSave>
			<netSolve>1</netSolve>
			<E>100000</E>
			<v>4.900000e-01</v>
		</material>
		<material id="276" name="M276" type="PeriodicNetwork">
			<netNum>276</netNum>
			<netSave>0</netSave>
			<netSolve>1</netSolve>
			<E>100000</E>
			<v>4.900000e-01</v>
		</material>
		<material id="277" name="M277" type="PeriodicNetwork">
			<netNum>277</netNum>
			<netSave>0</netSave>
			<netSolve>1</netSolve>
			<E>100000</E>
			<v>4.900000e-01</v>
		</material>
		<material id="278" name="M278" type="PeriodicNetwork">
			<netNum>278</netNum>
			<netSave>0</netSave>
			<netSolve>1</netSolve>
			<E>100000</E>
			<v>4.900000e-01</v>
		</material>
		<material id="279" name="M279" type="PeriodicNetwork">
			<netNum>279</netNum>
			<netSave>0</netSave>
			<netSolve>1</netSolve>
			<E>100000</E>
			<v>4.900000e-01</v>
		</material>
		<material id="280" name="M280" type="PeriodicNetwork">
			<netNum>280</netNum>
			<netSave>0</netSave>
			<netSolve>1</netSolve>
			<E>100000</E>
			<v>4.900000e-01</v>
		</material>
		<material id="281" name="M281" type="PeriodicNetwork">
			<netNum>281</netNum>
			<netSave>0</netSave>
			<netSolve>1</netSolve>
			<E>100000</E>
			<v>4.900000e-01</v>
		</material>
		<material id="282" name="M282" type="PeriodicNetwork">
			<netNum>282</netNum>
			<netSave>0</netSave>
			<netSolve>1</netSolve>
			<E>100000</E>
			<v>4.900000e-01</v>
		</material>
		<material id="283" name="M283" type="PeriodicNetwork">
			<netNum>283</netNum>
			<netSave>0</netSave>
			<netSolve>1</netSolve>
			<E>100000</E>
			<v>4.900000e-01</v>
		</material>
		<material id="284" name="M284" type="PeriodicNetwork">
			<netNum>284</netNum>
			<netSave>0</netSave>
			<netSolve>1</netSolve>
			<E>100000</E>
			<v>4.900000e-01</v>
		</material>
		<material id="285" name="M285" type="PeriodicNetwork">
			<netNum>285</netNum>
			<netSave>0</netSave>
			<netSolve>1</netSolve>
			<E>100000</E>
			<v>4.900000e-01</v>
		</material>
		<material id="286" name="M286" type="PeriodicNetwork">
			<netNum>286</netNum>
			<netSave>0</netSave>
			<netSolve>1</netSolve>
			<E>100000</E>
			<v>4.900000e-01</v>
		</material>
		<material id="287" name="M287" type="PeriodicNetwork">
			<netNum>287</netNum>
			<netSave>0</netSave>
			<netSolve>1</netSolve>
			<E>100000</E>
			<v>4.900000e-01</v>
		</material>
		<material id="288" name="M288" type="PeriodicNetwork">
			<netNum>288</netNum>
			<netSave>0</netSave>
			<netSolve>1</netSolve>
			<E>100000</E>
			<v>4.900000e-01</v>
		</material>
		<material id="289" name="M289" type="PeriodicNetwork">
			<netNum>289</netNum>
			<netSave>0</netSave>
			<netSolve>1</netSolve>
			<E>100000</E>
			<v>4.900000e-01</v>
		</material>
		<material id="290" name="M290" type="PeriodicNetwork">
			<netNum>290</netNum>
			<netSave>0</netSave>
			<netSolve>1</netSolve>
			<E>100000</E>
			<v>4.900000e-01</v>
		</material>
		<material id="291" name="M291" type="PeriodicNetwork">
			<netNum>291</netNum>
			<netSave>0</netSave>
			<netSolve>1</netSolve>
			<E>100000</E>
			<v>4.900000e-01</v>
		</material>
		<material id="292" name="M292" type="PeriodicNetwork">
			<netNum>292</netNum>
			<netSave>0</netSave>
			<netSolve>1</netSolve>
			<E>100000</E>
			<v>4.900000e-01</v>
		</material>
		<material id="293" name="M293" type="PeriodicNetwork">
			<netNum>293</netNum>
			<netSave>0</netSave>
			<netSolve>1</netSolve>
			<E>100000</E>
			<v>4.900000e-01</v>
		</material>
		<material id="294" name="M294" type="PeriodicNetwork">
			<netNum>294</netNum>
			<netSave>0</netSave>
			<netSolve>1</netSolve>
			<E>100000</E>
			<v>4.900000e-01</v>
		</material>
		<material id="295" name="M295" type="PeriodicNetwork">
			<netNum>295</netNum>
			<netSave>0</netSave>
			<netSolve>1</netSolve>
			<E>100000</E>
			<v>4.900000e-01</v>
		</material>
	</Material>
	<Mesh>
		<Nodes name="Object2">
			<node id="1">0,0,0</node>
			<node id="2">0.002,0,0</node>
			<node id="3">0.003,0,0</node>
			<node id="4">0.000939339828,0.000939339828,0</node>
			<node id="5">0.002,0.0005,0</node>
			<node id="6">0.003,0.0005,0</node>
			<node id="7">0,0.002,0</node>
			<node id="8">0.0005,0.002,0</node>
			<node id="9">0,0.003,0</node>
			<node id="10">0.0005,0.003,0</node>
			<node id="11">0,0,0.0001</node>
			<node id="12">0.002,0,0.0001</node>
			<node id="13">0.003,0,0.0001</node>
			<node id="14">0.000939339828,0.000939339828,0.0001</node>
			<node id="15">0.002,0.0005,0.0001</node>
			<node id="16">0.003,0.0005,0.0001</node>
			<node id="17">0,0.002,0.0001</node>
			<node id="18">0.0005,0.002,0.0001</node>
			<node id="19">0,0.003,0.0001</node>
			<node id="20">0.0005,0.003,0.0001</node>
<!-- ... 700 like lines cut -->
		</Nodes>
		<Elements type="hex8"  mat="M1" name="Part1">
			<elem id="1">1,39,338,126,11,40,357,127</elem>
		</Elements>
		<Elements type="hex8"  mat="M2" name="Part2">
			<elem id="2">39,38,339,338,40,41,358,357</elem>
		</Elements>
		<Elements type="hex8"  mat="M3" name="Part3">
			<elem id="3">38,37,340,339,41,42,359,358</elem>
		</Elements>
		<Elements type="hex8"  mat="M4" name="Part4">
			<elem id="4">37,36,341,340,42,43,360,359</elem>
		</Elements>
		<Elements type="hex8"  mat="M5" name="Part5">
			<elem id="5">36,35,342,341,43,44,361,360</elem>
		</Elements>
		<Elements type="hex8"  mat="M6" name="Part6">
			<elem id="6">35,34,343,342,44,45,362,361</elem>
		</Elements>
		<Elements type="hex8"  mat="M7" name="Part7">
			<elem id="7">34,33,344,343,45,46,363,362</elem>
		</Elements>
		<Elements type="hex8"  mat="M8" name="Part8">
			<elem id="8">33,32,345,344,46,47,364,363</elem>
		</Elements>
		<Elements type="hex8"  mat="M9" name="Part9">
			<elem id="9">32,31,346,345,47,48,365,364</elem>
		</Elements>
		<Elements type="hex8"  mat="M10" name="Part10">
			<elem id="10">31,30,347,346,48,49,366,365</elem>
		</Elements>
		<Elements type="hex8"  mat="M11" name="Part11">
			<elem id="11">30,29,348,347,49,50,367,366</elem>
		</Elements>
		<Elements type="hex8"  mat="M12" name="Part12">
			<elem id="12">29,28,349,348,50,51,368,367</elem>
		</Elements>
		<Elements type="hex8"  mat="M13" name="Part13">
			<elem id="13">28,27,350,349,51,52,369,368</elem>
		</Elements>
		<Elements type="hex8"  mat="M14" name="Part14">
			<elem id="14">27,26,351,350,52,53,370,369</elem>
		</Elements>
		<Elements type="hex8"  mat="M15" name="Part15">
			<elem id="15">26,25,352,351,53,54,371,370</elem>
		</Elements>
		<Elements type="hex8"  mat="M16" name="Part16">
			<elem id="16">25,24,353,352,54,55,372,371</elem>
		</Elements>
		<Elements type="hex8"  mat="M17" name="Part17">
			<elem id="17">24,23,354,353,55,56,373,372</elem>
		</Elements>
		<Elements type="hex8"  mat="M18" name="Part18">
			<elem id="18">23,22,355,354,56,57,374,373</elem>
		</Elements>
		<Elements type="hex8"  mat="M19" name="Part19">
			<elem id="19">22,21,356,355,57,58,375,374</elem>
		</Elements>
		<Elements type="hex8"  mat="M20" name="Part20">
			<elem id="20">21,2,77,356,58,12,84,375</elem>
		</Elements>
		<Elements type="hex8"  mat="M21" name="Part21">
			<elem id="21">126,338,319,125,127,357,376,128</elem>
		</Elements>
		<Elements type="hex8"  mat="M22" name="Part22">
			<elem id="22">338,339,320,319,357,358,377,376</elem>
		</Elements>
		<Elements type="hex8"  mat="M23" name="Part23">
			<elem id="23">339,340,321,320,358,359,378,377</elem>
		</Elements>
		<Elements type="hex8"  mat="M24" name="Part24">
			<elem id="24">340,341,322,321,359,360,379,378</elem>
		</Elements>
		<Elements type="hex8"  mat="M25" name="Part25">
			<elem id="25">341,342,323,322,360,361,380,379</elem>
		</Elements>
		<Elements type="hex8"  mat="M26" name="Part26">
			<elem id="26">342,343,324,323,361,362,381,380</elem>
		</Elements>
		<Elements type="hex8"  mat="M27" name="Part27">
			<elem id="27">343,344,325,324,362,363,382,381</elem>
		</Elements>
		<Elements type="hex8"  mat="M28" name="Part28">
			<elem id="28">344,345,326,325,363,364,383,382</elem>
		</Elements>
		<Elements type="hex8"  mat="M29" name="Part29">
			<elem id="29">345,346,327,326,364,365,384,383</elem>
		</Elements>
		<Elements type="hex8"  mat="M30" name="Part30">
			<elem id="30">346,347,328,327,365,366,385,384</elem>
		</Elements>
		<Elements type="hex8"  mat="M31" name="Part31">
			<elem id="31">347,348,329,328,366,367,386,385</elem>
		</Elements>
		<Elements type="hex8"  mat="M32" name="Part32">
			<elem id="32">348,349,330,329,367,368,387,386</elem>
		</Elements>
		<Elements type="hex8"  mat="M33" name="Part33">
			<elem id="33">349,350,331,330,368,369,388,387</elem>
		</Elements>
		<Elements type="hex8"  mat="M34" name="Part34">
			<elem id="34">350,351,332,331,369,370,389,388</elem>
		</Elements>
		<Elements type="hex8"  mat="M35" name="Part35">
			<elem id="35">351,352,333,332,370,371,390,389</elem>
		</Elements>
		<Elements type="hex8"  mat="M36" name="Part36">
			<elem id="36">352,353,334,333,371,372,391,390</elem>
		</Elements>
		<Elements type="hex8"  mat="M37" name="Part37">
			<elem id="37">353,354,335,334,372,373,392,391</elem>
		</Elements>
		<Elements type="hex8"  mat="M38" name="Part38">
			<elem id="38">354,355,336,335,373,374,393,392</elem>
		</Elements>
		<Elements type="hex8"  mat="M39" name="Part39">
			<elem id="39">355,356,337,336,374,375,394,393</elem>
		</Elements>
		<Elements type="hex8"  mat="M40" name="Part40">
			<elem id="40">356,77,78,337,375,84,83,394</elem>
		</Elements>
		<Elements type="hex8"  mat="M41" name="Part41">
			<elem id="41">125,319,300,124,128,376,395,129</elem>
		</Elements>
		<Elements type="hex8"  mat="M42" name="Part42">
			<elem id="42">319,320,301,300,376,377,396,395</elem>
		</Elements>
		<Elements type="hex8"  mat="M43" name="Part43">
			<elem id="43">320,321,302,301,377,378,397,396</elem>
		</Elements>
		<Elements type="hex8"  mat="M44" name="Part44">
			<elem id="44">321,322,303,302,378,379,398,397</elem>
		</Elements>
		<Elements type="hex8"  mat="M45" name="Part45">
			<elem id="45">322,323,304,303,379,380,399,398</elem>
		</Elements>
		<Elements type="hex8"  mat="M46" name="Part46">
			<elem id="46">323,324,305,304,380,381,400,399</elem>
		</Elements>
		<Elements type="hex8"  mat="M47" name="Part47">
			<elem id="47">324,325,306,305,381,382,401,400</elem>
		</Elements>
		<Elements type="hex8"  mat="M48" name="Part48">
			<elem id="48">325,326,307,306,382,383,402,401</elem>
		</Elements>
		<Elements type="hex8"  mat="M49" name="Part49">
			<elem id="49">326,327,308,307,383,384,403,402</elem>
		</Elements>
		<Elements type="hex8"  mat="M50" name="Part50">
			<elem id="50">327,328,309,308,384,385,404,403</elem>
		</Elements>
		<Elements type="hex8"  mat="M51" name="Part51">
			<elem id="51">328,329,310,309,385,386,405,404</elem>
		</Elements>
		<Elements type="hex8"  mat="M52" name="Part52">
			<elem id="52">329,330,311,310,386,387,406,405</elem>
		</Elements>
		<Elements type="hex8"  mat="M53" name="Part53">
			<elem id="53">330,331,312,311,387,388,407,406</elem>
		</Elements>
		<Elements type="hex8"  mat="M54" name="Part54">
			<elem id="54">331,332,313,312,388,389,408,407</elem>
		</Elements>
		<Elements type="hex8"  mat="M55" name="Part55">
			<elem id="55">332,333,314,313,389,390,409,408</elem>
		</Elements>
		<Elements type="hex8"  mat="M56" name="Part56">
			<elem id="56">333,334,315,314,390,391,410,409</elem>
		</Elements>
		<Elements type="hex8"  mat="M57" name="Part57">
			<elem id="57">334,335,316,315,391,392,411,410</elem>
		</Elements>
		<Elements type="hex8"  mat="M58" name="Part58">
			<elem id="58">335,336,317,316,392,393,412,411</elem>
		</Elements>
		<Elements type="hex8"  mat="M59" name="Part59">
			<elem id="59">336,337,318,317,393,394,413,412</elem>
		</Elements>
		<Elements type="hex8"  mat="M60" name="Part60">
			<elem id="60">337,78,79,318,394,83,82,413</elem>
		</Elements>
		<Elements type="hex8"  mat="M61" name="Part61">
			<elem id="61">124,300,281,123,129,395,414,130</elem>
		</Elements>
		<Elements type="hex8"  mat="M62" name="Part62">
			<elem id="62">300,301,282,281,395,396,415,414</elem>
		</Elements>
		<Elements type="hex8"  mat="M63" name="Part63">
			<elem id="63">301,302,283,282,396,397,416,415</elem>
		</Elements>
		<Elements type="hex8"  mat="M64" name="Part64">
			<elem id="64">302,303,284,283,397,398,417,416</elem>
		</Elements>
		<Elements type="hex8"  mat="M65" name="Part65">
			<elem id="65">303,304,285,284,398,399,418,417</elem>
		</Elements>
		<Elements type="hex8"  mat="M66" name="Part66">
			<elem id="66">304,305,286,285,399,400,419,418</elem>
		</Elements>
		<Elements type="hex8"  mat="M67" name="Part67">
			<elem id="67">305,306,287,286,400,401,420,419</elem>
		</Elements>
		<Elements type="hex8"  mat="M68" name="Part68">
			<elem id="68">306,307,288,287,401,402,421,420</elem>
		</Elements>
		<Elements type="hex8"  mat="M69" name="Part69">
			<elem id="69">307,308,289,288,402,403,422,421</elem>
		</Elements>
		<Elements type="hex8"  mat="M70" name="Part70">
			<elem id="70">308,309,290,289,403,404,423,422</elem>
		</Elements>
		<Elements type="hex8"  mat="M71" name="Part71">
			<elem id="71">309,310,291,290,404,405,424,423</elem>
		</Elements>
		<Elements type="hex8"  mat="M72" name="Part72">
			<elem id="72">310,311,292,291,405,406,425,424</elem>
		</Elements>
		<Elements type="hex8"  mat="M73" name="Part73">
			<elem id="73">311,312,293,292,406,407,426,425</elem>
		</Elements>
		<Elements type="hex8"  mat="M74" name="Part74">
			<elem id="74">312,313,294,293,407,408,427,426</elem>
		</Elements>
		<Elements type="hex8"  mat="M75" name="Part75">
			<elem id="75">313,314,295,294,408,409,428,427</elem>
		</Elements>
		<Elements type="hex8"  mat="M76" name="Part76">
			<elem id="76">314,315,296,295,409,410,429,428</elem>
		</Elements>
		<Elements type="hex8"  mat="M77" name="Part77">
			<elem id="77">315,316,297,296,410,411,430,429</elem>
		</Elements>
		<Elements type="hex8"  mat="M78" name="Part78">
			<elem id="78">316,317,298,297,411,412,431,430</elem>
		</Elements>
		<Elements type="hex8"  mat="M79" name="Part79">
			<elem id="79">317,318,299,298,412,413,432,431</elem>
		</Elements>
		<Elements type="hex8"  mat="M80" name="Part80">
			<elem id="80">318,79,80,299,413,82,81,432</elem>
		</Elements>
		<Elements type="hex8"  mat="M81" name="Part81">
			<elem id="81">123,281,103,4,130,414,104,14</elem>
		</Elements>
		<Elements type="hex8"  mat="M82" name="Part82">
			<elem id="82">281,282,102,103,414,415,105,104</elem>
		</Elements>
		<Elements type="hex8"  mat="M83" name="Part83">
			<elem id="83">282,283,101,102,415,416,106,105</elem>
		</Elements>
		<Elements type="hex8"  mat="M84" name="Part84">
			<elem id="84">283,284,100,101,416,417,107,106</elem>
		</Elements>
		<Elements type="hex8"  mat="M85" name="Part85">
			<elem id="85">284,285,99,100,417,418,108,107</elem>
		</Elements>
		<Elements type="hex8"  mat="M86" name="Part86">
			<elem id="86">285,286,98,99,418,419,109,108</elem>
		</Elements>
		<Elements type="hex8"  mat="M87" name="Part87">
			<elem id="87">286,287,97,98,419,420,110,109</elem>
		</Elements>
		<Elements type="hex8"  mat="M88" name="Part88">
			<elem id="88">287,288,96,97,420,421,111,110</elem>
		</Elements>
		<Elements type="hex8"  mat="M89" name="Part89">
			<elem id="89">288,289,95,96,421,422,112,111</elem>
		</Elements>
		<Elements type="hex8"  mat="M90" name="Part90">
			<elem id="90">289,290,94,95,422,423,113,112</elem>
		</Elements>
		<Elements type="hex8"  mat="M91" name="Part91">
			<elem id="91">290,291,93,94,423,424,114,113</elem>
		</Elements>
		<Elements type="hex8"  mat="M92" name="Part92">
			<elem id="92">291,292,92,93,424,425,115,114</elem>
		</Elements>
		<Elements type="hex8"  mat="M93" name="Part93">
			<elem id="93">292,293,91,92,425,426,116,115</elem>
		</Elements>
		<Elements type="hex8"  mat="M94" name="Part94">
			<elem id="94">293,294,90,91,426,427,117,116</elem>
		</Elements>
		<Elements type="hex8"  mat="M95" name="Part95">
			<elem id="95">294,295,89,90,427,428,118,117</elem>
		</Elements>
		<Elements type="hex8"  mat="M96" name="Part96">
			<elem id="96">295,296,88,89,428,429,119,118</elem>
		</Elements>
		<Elements type="hex8"  mat="M97" name="Part97">
			<elem id="97">296,297,87,88,429,430,120,119</elem>
		</Elements>
		<Elements type="hex8"  mat="M98" name="Part98">
			<elem id="98">297,298,86,87,430,431,121,120</elem>
		</Elements>
		<Elements type="hex8"  mat="M99" name="Part99">
			<elem id="99">298,299,85,86,431,432,122,121</elem>
		</Elements>
		<Elements type="hex8"  mat="M100" name="Part100">
			<elem id="100">299,80,5,85,432,81,15,122</elem>
		</Elements>
		<Elements type="hex8"  mat="M101" name="Part101">
			<elem id="101">2,67,460,77,12,68,469,84</elem>
		</Elements>
		<Elements type="hex8"  mat="M102" name="Part102">
			<elem id="102">67,66,461,460,68,69,470,469</elem>
		</Elements>
		<Elements type="hex8"  mat="M103" name="Part103">
			<elem id="103">66,65,462,461,69,70,471,470</elem>
		</Elements>
		<Elements type="hex8"  mat="M104" name="Part104">
			<elem id="104">65,64,463,462,70,71,472,471</elem>
		</Elements>
		<Elements type="hex8"  mat="M105" name="Part105">
			<elem id="105">64,63,464,463,71,72,473,472</elem>
		</Elements>
		<Elements type="hex8"  mat="M106" name="Part106">
			<elem id="106">63,62,465,464,72,73,474,473</elem>
		</Elements>
		<Elements type="hex8"  mat="M107" name="Part107">
			<elem id="107">62,61,466,465,73,74,475,474</elem>
		</Elements>
		<Elements type="hex8"  mat="M108" name="Part108">
			<elem id="108">61,60,467,466,74,75,476,475</elem>
		</Elements>
		<Elements type="hex8"  mat="M109" name="Part109">
			<elem id="109">60,59,468,467,75,76,477,476</elem>
		</Elements>
		<Elements type="hex8"  mat="M110" name="Part110">
			<elem id="110">59,3,131,468,76,13,138,477</elem>
		</Elements>
		<Elements type="hex8"  mat="M111" name="Part111">
			<elem id="111">77,460,451,78,84,469,478,83</elem>
		</Elements>
		<Elements type="hex8"  mat="M112" name="Part112">
			<elem id="112">460,461,452,451,469,470,479,478</elem>
		</Elements>
		<Elements type="hex8"  mat="M113" name="Part113">
			<elem id="113">461,462,453,452,470,471,480,479</elem>
		</Elements>
		<Elements type="hex8"  mat="M114" name="Part114">
			<elem id="114">462,463,454,453,471,472,481,480</elem>
		</Elements>
		<Elements type="hex8"  mat="M115" name="Part115">
			<elem id="115">463,464,455,454,472,473,482,481</elem>
		</Elements>
		<Elements type="hex8"  mat="M116" name="Part116">
			<elem id="116">464,465,456,455,473,474,483,482</elem>
		</Elements>
		<Elements type="hex8"  mat="M117" name="Part117">
			<elem id="117">465,466,457,456,474,475,484,483</elem>
		</Elements>
		<Elements type="hex8"  mat="M118" name="Part118">
			<elem id="118">466,467,458,457,475,476,485,484</elem>
		</Elements>
		<Elements type="hex8"  mat="M119" name="Part119">
			<elem id="119">467,468,459,458,476,477,486,485</elem>
		</Elements>
		<Elements type="hex8"  mat="M120" name="Part120">
			<elem id="120">468,131,132,459,477,138,137,486</elem>
		</Elements>
		<Elements type="hex8"  mat="M121" name="Part121">
			<elem id="121">78,451,442,79,83,478,487,82</elem>
		</Elements>
		<Elements type="hex8"  mat="M122" name="Part122">
			<elem id="122">451,452,443,442,478,479,488,487</elem>
		</Elements>
		<Elements type="hex8"  mat="M123" name="Part123">
			<elem id="123">452,453,444,443,479,480,489,488</elem>
		</Elements>
		<Elements type="hex8"  mat="M124" name="Part124">
			<elem id="124">453,454,445,444,480,481,490,489</elem>
		</Elements>
		<Elements type="hex8"  mat="M125" name="Part125">
			<elem id="125">454,455,446,445,481,482,491,490</elem>
		</Elements>
		<Elements type="hex8"  mat="M126" name="Part126">
			<elem id="126">455,456,447,446,482,483,492,491</elem>
		</Elements>
		<Elements type="hex8"  mat="M127" name="Part127">
			<elem id="127">456,457,448,447,483,484,493,492</elem>
		</Elements>
		<Elements type="hex8"  mat="M128" name="Part128">
			<elem id="128">457,458,449,448,484,485,494,493</elem>
		</Elements>
		<Elements type="hex8"  mat="M129" name="Part129">
			<elem id="129">458,459,450,449,485,486,495,494</elem>
		</Elements>
		<Elements type="hex8"  mat="M130" name="Part130">
			<elem id="130">459,132,133,450,486,137,136,495</elem>
		</Elements>
		<Elements type="hex8"  mat="M131" name="Part131">
			<elem id="131">79,442,433,80,82,487,496,81</elem>
		</Elements>
		<Elements type="hex8"  mat="M132" name="Part132">
			<elem id="132">442,443,434,433,487,488,497,496</elem>
		</Elements>
		<Elements type="hex8"  mat="M133" name="Part133">
			<elem id="133">443,444,435,434,488,489,498,497</elem>
		</Elements>
		<Elements type="hex8"  mat="M134" name="Part134">
			<elem id="134">444,445,436,435,489,490,499,498</elem>
		</Elements>
		<Elements type="hex8"  mat="M135" name="Part135">
			<elem id="135">445,446,437,436,490,491,500,499</elem>
		</Elements>
		<Elements type="hex8"  mat="M136" name="Part136">
			<elem id="136">446,447,438,437,491,492,501,500</elem>
		</Elements>
		<Elements type="hex8"  mat="M137" name="Part137">
			<elem id="137">447,448,439,438,492,493,502,501</elem>
		</Elements>
		<Elements type="hex8"  mat="M138" name="Part138">
			<elem id="138">448,449,440,439,493,494,503,502</elem>
		</Elements>
		<Elements type="hex8"  mat="M139" name="Part139">
			<elem id="139">449,450,441,440,494,495,504,503</elem>
		</Elements>
		<Elements type="hex8"  mat="M140" name="Part140">
			<elem id="140">450,133,134,441,495,136,135,504</elem>
		</Elements>
		<Elements type="hex8"  mat="M141" name="Part141">
			<elem id="141">80,433,147,5,81,496,148,15</elem>
		</Elements>
		<Elements type="hex8"  mat="M142" name="Part142">
			<elem id="142">433,434,146,147,496,497,149,148</elem>
		</Elements>
		<Elements type="hex8"  mat="M143" name="Part143">
			<elem id="143">434,435,145,146,497,498,150,149</elem>
		</Elements>
		<Elements type="hex8"  mat="M144" name="Part144">
			<elem id="144">435,436,144,145,498,499,151,150</elem>
		</Elements>
		<Elements type="hex8"  mat="M145" name="Part145">
			<elem id="145">436,437,143,144,499,500,152,151</elem>
		</Elements>
		<Elements type="hex8"  mat="M146" name="Part146">
			<elem id="146">437,438,142,143,500,501,153,152</elem>
		</Elements>
		<Elements type="hex8"  mat="M147" name="Part147">
			<elem id="147">438,439,141,142,501,502,154,153</elem>
		</Elements>
		<Elements type="hex8"  mat="M148" name="Part148">
			<elem id="148">439,440,140,141,502,503,155,154</elem>
		</Elements>
		<Elements type="hex8"  mat="M149" name="Part149">
			<elem id="149">440,441,139,140,503,504,156,155</elem>
		</Elements>
		<Elements type="hex8"  mat="M150" name="Part150">
			<elem id="150">441,134,6,139,504,135,16,156</elem>
		</Elements>
		<Elements type="hex8"  mat="M151" name="Part151">
			<elem id="151">1,126,577,221,11,127,581,222</elem>
		</Elements>
		<Elements type="hex8"  mat="M152" name="Part152">
			<elem id="152">126,125,578,577,127,128,582,581</elem>
		</Elements>
		<Elements type="hex8"  mat="M153" name="Part153">
			<elem id="153">125,124,579,578,128,129,583,582</elem>
		</Elements>
		<Elements type="hex8"  mat="M154" name="Part154">
			<elem id="154">124,123,580,579,129,130,584,583</elem>
		</Elements>
		<Elements type="hex8"  mat="M155" name="Part155">
			<elem id="155">123,4,157,580,130,14,194,584</elem>
		</Elements>
		<Elements type="hex8"  mat="M156" name="Part156">
			<elem id="156">221,577,573,220,222,581,585,223</elem>
		</Elements>
		<Elements type="hex8"  mat="M157" name="Part157">
			<elem id="157">577,578,574,573,581,582,586,585</elem>
		</Elements>
		<Elements type="hex8"  mat="M158" name="Part158">
			<elem id="158">578,579,575,574,582,583,587,586</elem>
		</Elements>
		<Elements type="hex8"  mat="M159" name="Part159">
			<elem id="159">579,580,576,575,583,584,588,587</elem>
		</Elements>
		<Elements type="hex8"  mat="M160" name="Part160">
			<elem id="160">580,157,158,576,584,194,193,588</elem>
		</Elements>
		<Elements type="hex8"  mat="M161" name="Part161">
			<elem id="161">220,573,569,219,223,585,589,224</elem>
		</Elements>
		<Elements type="hex8"  mat="M162" name="Part162">
			<elem id="162">573,574,570,569,585,586,590,589</elem>
		</Elements>
		<Elements type="hex8"  mat="M163" name="Part163">
			<elem id="163">574,575,571,570,586,587,591,590</elem>
		</Elements>
		<Elements type="hex8"  mat="M164" name="Part164">
			<elem id="164">575,576,572,571,587,588,592,591</elem>
		</Elements>
		<Elements type="hex8"  mat="M165" name="Part165">
			<elem id="165">576,158,159,572,588,193,192,592</elem>
		</Elements>
		<Elements type="hex8"  mat="M166" name="Part166">
			<elem id="166">219,569,565,218,224,589,593,225</elem>
		</Elements>
		<Elements type="hex8"  mat="M167" name="Part167">
			<elem id="167">569,570,566,565,589,590,594,593</elem>
		</Elements>
		<Elements type="hex8"  mat="M168" name="Part168">
			<elem id="168">570,571,567,566,590,591,595,594</elem>
		</Elements>
		<Elements type="hex8"  mat="M169" name="Part169">
			<elem id="169">571,572,568,567,591,592,596,595</elem>
		</Elements>
		<Elements type="hex8"  mat="M170" name="Part170">
			<elem id="170">572,159,160,568,592,192,191,596</elem>
		</Elements>
		<Elements type="hex8"  mat="M171" name="Part171">
			<elem id="171">218,565,561,217,225,593,597,226</elem>
		</Elements>
		<Elements type="hex8"  mat="M172" name="Part172">
			<elem id="172">565,566,562,561,593,594,598,597</elem>
		</Elements>
		<Elements type="hex8"  mat="M173" name="Part173">
			<elem id="173">566,567,563,562,594,595,599,598</elem>
		</Elements>
		<Elements type="hex8"  mat="M174" name="Part174">
			<elem id="174">567,568,564,563,595,596,600,599</elem>
		</Elements>
		<Elements type="hex8"  mat="M175" name="Part175">
			<elem id="175">568,160,161,564,596,191,190,600</elem>
		</Elements>
		<Elements type="hex8"  mat="M176" name="Part176">
			<elem id="176">217,561,557,216,226,597,601,227</elem>
		</Elements>
		<Elements type="hex8"  mat="M177" name="Part177">
			<elem id="177">561,562,558,557,597,598,602,601</elem>
		</Elements>
		<Elements type="hex8"  mat="M178" name="Part178">
			<elem id="178">562,563,559,558,598,599,603,602</elem>
		</Elements>
		<Elements type="hex8"  mat="M179" name="Part179">
			<elem id="179">563,564,560,559,599,600,604,603</elem>
		</Elements>
		<Elements type="hex8"  mat="M180" name="Part180">
			<elem id="180">564,161,162,560,600,190,189,604</elem>
		</Elements>
		<Elements type="hex8"  mat="M181" name="Part181">
			<elem id="181">216,557,553,215,227,601,605,228</elem>
		</Elements>
		<Elements type="hex8"  mat="M182" name="Part182">
			<elem id="182">557,558,554,553,601,602,606,605</elem>
		</Elements>
		<Elements type="hex8"  mat="M183" name="Part183">
			<elem id="183">558,559,555,554,602,603,607,606</elem>
		</Elements>
		<Elements type="hex8"  mat="M184" name="Part184">
			<elem id="184">559,560,556,555,603,604,608,607</elem>
		</Elements>
		<Elements type="hex8"  mat="M185" name="Part185">
			<elem id="185">560,162,163,556,604,189,188,608</elem>
		</Elements>
		<Elements type="hex8"  mat="M186" name="Part186">
			<elem id="186">215,553,549,214,228,605,609,229</elem>
		</Elements>
		<Elements type="hex8"  mat="M187" name="Part187">
			<elem id="187">553,554,550,549,605,606,610,609</elem>
		</Elements>
		<Elements type="hex8"  mat="M188" name="Part188">
			<elem id="188">554,555,551,550,606,607,611,610</elem>
		</Elements>
		<Elements type="hex8"  mat="M189" name="Part189">
			<elem id="189">555,556,552,551,607,608,612,611</elem>
		</Elements>
		<Elements type="hex8"  mat="M190" name="Part190">
			<elem id="190">556,163,164,552,608,188,187,612</elem>
		</Elements>
		<Elements type="hex8"  mat="M191" name="Part191">
			<elem id="191">214,549,545,213,229,609,613,230</elem>
		</Elements>
		<Elements type="hex8"  mat="M192" name="Part192">
			<elem id="192">549,550,546,545,609,610,614,613</elem>
		</Elements>
		<Elements type="hex8"  mat="M193" name="Part193">
			<elem id="193">550,551,547,546,610,611,615,614</elem>
		</Elements>
		<Elements type="hex8"  mat="M194" name="Part194">
			<elem id="194">551,552,548,547,611,612,616,615</elem>
		</Elements>
		<Elements type="hex8"  mat="M195" name="Part195">
			<elem id="195">552,164,165,548,612,187,186,616</elem>
		</Elements>
		<Elements type="hex8"  mat="M196" name="Part196">
			<elem id="196">213,545,541,212,230,613,617,231</elem>
		</Elements>
		<Elements type="hex8"  mat="M197" name="Part197">
			<elem id="197">545,546,542,541,613,614,618,617</elem>
		</Elements>
		<Elements type="hex8"  mat="M198" name="Part198">
			<elem id="198">546,547,543,542,614,615,619,618</elem>
		</Elements>
		<Elements type="hex8"  mat="M199" name="Part199">
			<elem id="199">547,548,544,543,615,616,620,619</elem>
		</Elements>
		<Elements type="hex8"  mat="M200" name="Part200">
			<elem id="200">548,165,166,544,616,186,185,620</elem>
		</Elements>
		<Elements type="hex8"  mat="M201" name="Part201">
			<elem id="201">212,541,537,211,231,617,621,232</elem>
		</Elements>
		<Elements type="hex8"  mat="M202" name="Part202">
			<elem id="202">541,542,538,537,617,618,622,621</elem>
		</Elements>
		<Elements type="hex8"  mat="M203" name="Part203">
			<elem id="203">542,543,539,538,618,619,623,622</elem>
		</Elements>
		<Elements type="hex8"  mat="M204" name="Part204">
			<elem id="204">543,544,540,539,619,620,624,623</elem>
		</Elements>
		<Elements type="hex8"  mat="M205" name="Part205">
			<elem id="205">544,166,167,540,620,185,184,624</elem>
		</Elements>
		<Elements type="hex8"  mat="M206" name="Part206">
			<elem id="206">211,537,533,210,232,621,625,233</elem>
		</Elements>
		<Elements type="hex8"  mat="M207" name="Part207">
			<elem id="207">537,538,534,533,621,622,626,625</elem>
		</Elements>
		<Elements type="hex8"  mat="M208" name="Part208">
			<elem id="208">538,539,535,534,622,623,627,626</elem>
		</Elements>
		<Elements type="hex8"  mat="M209" name="Part209">
			<elem id="209">539,540,536,535,623,624,628,627</elem>
		</Elements>
		<Elements type="hex8"  mat="M210" name="Part210">
			<elem id="210">540,167,168,536,624,184,183,628</elem>
		</Elements>
		<Elements type="hex8"  mat="M211" name="Part211">
			<elem id="211">210,533,529,209,233,625,629,234</elem>
		</Elements>
		<Elements type="hex8"  mat="M212" name="Part212">
			<elem id="212">533,534,530,529,625,626,630,629</elem>
		</Elements>
		<Elements type="hex8"  mat="M213" name="Part213">
			<elem id="213">534,535,531,530,626,627,631,630</elem>
		</Elements>
		<Elements type="hex8"  mat="M214" name="Part214">
			<elem id="214">535,536,532,531,627,628,632,631</elem>
		</Elements>
		<Elements type="hex8"  mat="M215" name="Part215">
			<elem id="215">536,168,169,532,628,183,182,632</elem>
		</Elements>
		<Elements type="hex8"  mat="M216" name="Part216">
			<elem id="216">209,529,525,208,234,629,633,235</elem>
		</Elements>
		<Elements type="hex8"  mat="M217" name="Part217">
			<elem id="217">529,530,526,525,629,630,634,633</elem>
		</Elements>
		<Elements type="hex8"  mat="M218" name="Part218">
			<elem id="218">530,531,527,526,630,631,635,634</elem>
		</Elements>
		<Elements type="hex8"  mat="M219" name="Part219">
			<elem id="219">531,532,528,527,631,632,636,635</elem>
		</Elements>
		<Elements type="hex8"  mat="M220" name="Part220">
			<elem id="220">532,169,170,528,632,182,181,636</elem>
		</Elements>
		<Elements type="hex8"  mat="M221" name="Part221">
			<elem id="221">208,525,521,207,235,633,637,236</elem>
		</Elements>
		<Elements type="hex8"  mat="M222" name="Part222">
			<elem id="222">525,526,522,521,633,634,638,637</elem>
		</Elements>
		<Elements type="hex8"  mat="M223" name="Part223">
			<elem id="223">526,527,523,522,634,635,639,638</elem>
		</Elements>
		<Elements type="hex8"  mat="M224" name="Part224">
			<elem id="224">527,528,524,523,635,636,640,639</elem>
		</Elements>
		<Elements type="hex8"  mat="M225" name="Part225">
			<elem id="225">528,170,171,524,636,181,180,640</elem>
		</Elements>
		<Elements type="hex8"  mat="M226" name="Part226">
			<elem id="226">207,521,517,206,236,637,641,237</elem>
		</Elements>
		<Elements type="hex8"  mat="M227" name="Part227">
			<elem id="227">521,522,518,517,637,638,642,641</elem>
		</Elements>
		<Elements type="hex8"  mat="M228" name="Part228">
			<elem id="228">522,523,519,518,638,639,643,642</elem>
		</Elements>
		<Elements type="hex8"  mat="M229" name="Part229">
			<elem id="229">523,524,520,519,639,640,644,643</elem>
		</Elements>
		<Elements type="hex8"  mat="M230" name="Part230">
			<elem id="230">524,171,172,520,640,180,179,644</elem>
		</Elements>
		<Elements type="hex8"  mat="M231" name="Part231">
			<elem id="231">206,517,513,205,237,641,645,238</elem>
		</Elements>
		<Elements type="hex8"  mat="M232" name="Part232">
			<elem id="232">517,518,514,513,641,642,646,645</elem>
		</Elements>
		<Elements type="hex8"  mat="M233" name="Part233">
			<elem id="233">518,519,515,514,642,643,647,646</elem>
		</Elements>
		<Elements type="hex8"  mat="M234" name="Part234">
			<elem id="234">519,520,516,515,643,644,648,647</elem>
		</Elements>
		<Elements type="hex8"  mat="M235" name="Part235">
			<elem id="235">520,172,173,516,644,179,178,648</elem>
		</Elements>
		<Elements type="hex8"  mat="M236" name="Part236">
			<elem id="236">205,513,509,204,238,645,649,239</elem>
		</Elements>
		<Elements type="hex8"  mat="M237" name="Part237">
			<elem id="237">513,514,510,509,645,646,650,649</elem>
		</Elements>
		<Elements type="hex8"  mat="M238" name="Part238">
			<elem id="238">514,515,511,510,646,647,651,650</elem>
		</Elements>
		<Elements type="hex8"  mat="M239" name="Part239">
			<elem id="239">515,516,512,511,647,648,652,651</elem>
		</Elements>
		<Elements type="hex8"  mat="M240" name="Part240">
			<elem id="240">516,173,174,512,648,178,177,652</elem>
		</Elements>
		<Elements type="hex8"  mat="M241" name="Part241">
			<elem id="241">204,509,505,203,239,649,653,240</elem>
		</Elements>
		<Elements type="hex8"  mat="M242" name="Part242">
			<elem id="242">509,510,506,505,649,650,654,653</elem>
		</Elements>
		<Elements type="hex8"  mat="M243" name="Part243">
			<elem id="243">510,511,507,506,650,651,655,654</elem>
		</Elements>
		<Elements type="hex8"  mat="M244" name="Part244">
			<elem id="244">511,512,508,507,651,652,656,655</elem>
		</Elements>
		<Elements type="hex8"  mat="M245" name="Part245">
			<elem id="245">512,174,175,508,652,177,176,656</elem>
		</Elements>
		<Elements type="hex8"  mat="M246" name="Part246">
			<elem id="246">203,505,198,7,240,653,199,17</elem>
		</Elements>
		<Elements type="hex8"  mat="M247" name="Part247">
			<elem id="247">505,506,197,198,653,654,200,199</elem>
		</Elements>
		<Elements type="hex8"  mat="M248" name="Part248">
			<elem id="248">506,507,196,197,654,655,201,200</elem>
		</Elements>
		<Elements type="hex8"  mat="M249" name="Part249">
			<elem id="249">507,508,195,196,655,656,202,201</elem>
		</Elements>
		<Elements type="hex8"  mat="M250" name="Part250">
			<elem id="250">508,175,8,195,656,176,18,202</elem>
		</Elements>
		<Elements type="hex8"  mat="M251" name="Part251">
			<elem id="251">7,198,685,272,17,199,689,273</elem>
		</Elements>
		<Elements type="hex8"  mat="M252" name="Part252">
			<elem id="252">198,197,686,685,199,200,690,689</elem>
		</Elements>
		<Elements type="hex8"  mat="M253" name="Part253">
			<elem id="253">197,196,687,686,200,201,691,690</elem>
		</Elements>
		<Elements type="hex8"  mat="M254" name="Part254">
			<elem id="254">196,195,688,687,201,202,692,691</elem>
		</Elements>
		<Elements type="hex8"  mat="M255" name="Part255">
			<elem id="255">195,8,241,688,202,18,256,692</elem>
		</Elements>
		<Elements type="hex8"  mat="M256" name="Part256">
			<elem id="256">272,685,681,271,273,689,693,274</elem>
		</Elements>
		<Elements type="hex8"  mat="M257" name="Part257">
			<elem id="257">685,686,682,681,689,690,694,693</elem>
		</Elements>
		<Elements type="hex8"  mat="M258" name="Part258">
			<elem id="258">686,687,683,682,690,691,695,694</elem>
		</Elements>
		<Elements type="hex8"  mat="M259" name="Part259">
			<elem id="259">687,688,684,683,691,692,696,695</elem>
		</Elements>
		<Elements type="hex8"  mat="M260" name="Part260">
			<elem id="260">688,241,242,684,692,256,255,696</elem>
		</Elements>
		<Elements type="hex8"  mat="M261" name="Part261">
			<elem id="261">271,681,677,270,274,693,697,275</elem>
		</Elements>
		<Elements type="hex8"  mat="M262" name="Part262">
			<elem id="262">681,682,678,677,693,694,698,697</elem>
		</Elements>
		<Elements type="hex8"  mat="M263" name="Part263">
			<elem id="263">682,683,679,678,694,695,699,698</elem>
		</Elements>
		<Elements type="hex8"  mat="M264" name="Part264">
			<elem id="264">683,684,680,679,695,696,700,699</elem>
		</Elements>
		<Elements type="hex8"  mat="M265" name="Part265">
			<elem id="265">684,242,243,680,696,255,254,700</elem>
		</Elements>
		<Elements type="hex8"  mat="M266" name="Part266">
			<elem id="266">270,677,673,269,275,697,701,276</elem>
		</Elements>
		<Elements type="hex8"  mat="M267" name="Part267">
			<elem id="267">677,678,674,673,697,698,702,701</elem>
		</Elements>
		<Elements type="hex8"  mat="M268" name="Part268">
			<elem id="268">678,679,675,674,698,699,703,702</elem>
		</Elements>
		<Elements type="hex8"  mat="M269" name="Part269">
			<elem id="269">679,680,676,675,699,700,704,703</elem>
		</Elements>
		<Elements type="hex8"  mat="M270" name="Part270">
			<elem id="270">680,243,244,676,700,254,253,704</elem>
		</Elements>
		<Elements type="hex8"  mat="M271" name="Part271">
			<elem id="271">269,673,669,268,276,701,705,277</elem>
		</Elements>
		<Elements type="hex8"  mat="M272" name="Part272">
			<elem id="272">673,674,670,669,701,702,706,705</elem>
		</Elements>
		<Elements type="hex8"  mat="M273" name="Part273">
			<elem id="273">674,675,671,670,702,703,707,706</elem>
		</Elements>
		<Elements type="hex8"  mat="M274" name="Part274">
			<elem id="274">675,676,672,671,703,704,708,707</elem>
		</Elements>
		<Elements type="hex8"  mat="M275" name="Part275">
			<elem id="275">676,244,245,672,704,253,252,708</elem>
		</Elements>
		<Elements type="hex8"  mat="M276" name="Part276">
			<elem id="276">268,669,665,267,277,705,709,278</elem>
		</Elements>
		<Elements type="hex8"  mat="M277" name="Part277">
			<elem id="277">669,670,666,665,705,706,710,709</elem>
		</Elements>
		<Elements type="hex8"  mat="M278" name="Part278">
			<elem id="278">670,671,667,666,706,707,711,710</elem>
		</Elements>
		<Elements type="hex8"  mat="M279" name="Part279">
			<elem id="279">671,672,668,667,707,708,712,711</elem>
		</Elements>
		<Elements type="hex8"  mat="M280" name="Part280">
			<elem id="280">672,245,246,668,708,252,251,712</elem>
		</Elements>
		<Elements type="hex8"  mat="M281" name="Part281">
			<elem id="281">267,665,661,266,278,709,713,279</elem>
		</Elements>
		<Elements type="hex8"  mat="M282" name="Part282">
			<elem id="282">665,666,662,661,709,710,714,713</elem>
		</Elements>
		<Elements type="hex8"  mat="M283" name="Part283">
			<elem id="283">666,667,663,662,710,711,715,714</elem>
		</Elements>
		<Elements type="hex8"  mat="M284" name="Part284">
			<elem id="284">667,668,664,663,711,712,716,715</elem>
		</Elements>
		<Elements type="hex8"  mat="M285" name="Part285">
			<elem id="285">668,246,247,664,712,251,250,716</elem>
		</Elements>
		<Elements type="hex8"  mat="M286" name="Part286">
			<elem id="286">266,661,657,265,279,713,717,280</elem>
		</Elements>
		<Elements type="hex8"  mat="M287" name="Part287">
			<elem id="287">661,662,658,657,713,714,718,717</elem>
		</Elements>
		<Elements type="hex8"  mat="M288" name="Part288">
			<elem id="288">662,663,659,658,714,715,719,718</elem>
		</Elements>
		<Elements type="hex8"  mat="M289" name="Part289">
			<elem id="289">663,664,660,659,715,716,720,719</elem>
		</Elements>
		<Elements type="hex8"  mat="M290" name="Part290">
			<elem id="290">664,247,248,660,716,250,249,720</elem>
		</Elements>
		<Elements type="hex8"  mat="M291" name="Part291">
			<elem id="291">265,657,260,9,280,717,261,19</elem>
		</Elements>
		<Elements type="hex8"  mat="M292" name="Part292">
			<elem id="292">657,658,259,260,717,718,262,261</elem>
		</Elements>
		<Elements type="hex8"  mat="M293" name="Part293">
			<elem id="293">658,659,258,259,718,719,263,262</elem>
		</Elements>
		<Elements type="hex8"  mat="M294" name="Part294">
			<elem id="294">659,660,257,258,719,720,264,263</elem>
		</Elements>
		<Elements type="hex8"  mat="M295" name="Part295">
			<elem id="295">660,248,10,257,720,249,20,264</elem>
		</Elements>
		<Surface name="FixedDisplacement1">
			<quad4 id="1">221,1,11,222</quad4>
			<quad4 id="2">220,221,222,223</quad4>
			<quad4 id="3">219,220,223,224</quad4>
			<quad4 id="4">218,219,224,225</quad4>
			<quad4 id="5">217,218,225,226</quad4>
			<quad4 id="6">216,217,226,227</quad4>
			<quad4 id="7">215,216,227,228</quad4>
			<quad4 id="8">214,215,228,229</quad4>
			<quad4 id="9">213,214,229,230</quad4>
			<quad4 id="10">212,213,230,231</quad4>
			<quad4 id="11">211,212,231,232</quad4>
			<quad4 id="12">210,211,232,233</quad4>
			<quad4 id="13">209,210,233,234</quad4>
			<quad4 id="14">208,209,234,235</quad4>
			<quad4 id="15">207,208,235,236</quad4>
			<quad4 id="16">206,207,236,237</quad4>
			<quad4 id="17">205,206,237,238</quad4>
			<quad4 id="18">204,205,238,239</quad4>
			<quad4 id="19">203,204,239,240</quad4>
			<quad4 id="20">7,203,240,17</quad4>
<!-- ... 9 like lines cut -->
		</Surface>
		<Surface name="FixedDisplacement2">
			<quad4 id="1">1,39,40,11</quad4>
			<quad4 id="2">39,38,41,40</quad4>
			<quad4 id="3">38,37,42,41</quad4>
			<quad4 id="4">37,36,43,42</quad4>
			<quad4 id="5">36,35,44,43</quad4>
			<quad4 id="6">35,34,45,44</quad4>
			<quad4 id="7">34,33,46,45</quad4>
			<quad4 id="8">33,32,47,46</quad4>
			<quad4 id="9">32,31,48,47</quad4>
			<quad4 id="10">31,30,49,48</quad4>
			<quad4 id="11">30,29,50,49</quad4>
			<quad4 id="12">29,28,51,50</quad4>
			<quad4 id="13">28,27,52,51</quad4>
			<quad4 id="14">27,26,53,52</quad4>
			<quad4 id="15">26,25,54,53</quad4>
			<quad4 id="16">25,24,55,54</quad4>
			<quad4 id="17">24,23,56,55</quad4>
			<quad4 id="18">23,22,57,56</quad4>
			<quad4 id="19">22,21,58,57</quad4>
			<quad4 id="20">21,2,12,58</quad4>
<!-- ... 10 like lines cut -->
		</Surface>
		<Surface name="FixedDisplacement3">
			<quad4 id="1">126,338,39,1</quad4>
			<quad4 id="2">338,339,38,39</quad4>
			<quad4 id="3">339,340,37,38</quad4>
			<quad4 id="4">340,341,36,37</quad4>
			<quad4 id="5">341,342,35,36</quad4>
			<quad4 id="6">342,343,34,35</quad4>
			<quad4 id="7">343,344,33,34</quad4>
			<quad4 id="8">344,345,32,33</quad4>
			<quad4 id="9">345,346,31,32</quad4>
			<quad4 id="10">346,347,30,31</quad4>
			<quad4 id="11">347,348,29,30</quad4>
			<quad4 id="12">348,349,28,29</quad4>
			<quad4 id="13">349,350,27,28</quad4>
			<quad4 id="14">350,351,26,27</quad4>
			<quad4 id="15">351,352,25,26</quad4>
			<quad4 id="16">352,353,24,25</quad4>
			<quad4 id="17">353,354,23,24</quad4>
			<quad4 id="18">354,355,22,23</quad4>
			<quad4 id="19">355,356,21,22</quad4>
			<quad4 id="20">356,77,2,21</quad4>
<!-- ... 275 like lines cut -->
		</Surface>
		<Surface name="PrescribedDisplacement1">
			<quad4 id="1">3,131,138,13</quad4>
			<quad4 id="2">131,132,137,138</quad4>
			<quad4 id="3">132,133,136,137</quad4>
			<quad4 id="4">133,134,135,136</quad4>
			<quad4 id="5">134,6,16,135</quad4>
		</Surface>
		<Surface name="PrescribedDisplacement2">
			<quad4 id="1">260,9,19,261</quad4>
			<quad4 id="2">259,260,261,262</quad4>
			<quad4 id="3">258,259,262,263</quad4>
			<quad4 id="4">257,258,263,264</quad4>
			<quad4 id="5">10,257,264,20</quad4>
		</Surface>
	</Mesh>
	<MeshDomains>
		<SolidDomain name="Part1" mat="M1"/>
		<SolidDomain name="Part2" mat="M2"/>
		<SolidDomain name="Part3" mat="M3"/>
		<SolidDomain name="Part4" mat="M4"/>
		<SolidDomain name="Part5" mat="M5"/>
		<SolidDomain name="Part6" mat="M6"/>
		<SolidDomain name="Part7" mat="M7"/>
		<SolidDomain name="Part8" mat="M8"/>
		<SolidDomain name="Part9" mat="M9"/>
		<SolidDomain name="Part10" mat="M10"/>
		<SolidDomain name="Part11" mat="M11"/>
		<SolidDomain name="Part12" mat="M12"/>
		<SolidDomain name="Part13" mat="M13"/>
		<SolidDomain name="Part14" mat="M14"/>
		<SolidDomain name="Part15" mat="M15"/>
		<SolidDomain name="Part16" mat="M16"/>
		<SolidDomain name="Part17" mat="M17"/>
		<SolidDomain name="Part18" mat="M18"/>
		<SolidDomain name="Part19" mat="M19"/>
		<SolidDomain name="Part20" mat="M20"/>
<!-- ... 275 like lines cut -->
	</MeshDomains>
	<Boundary>
		<bc name="FixedDisplacement1" type="fix" node_set="@surface:FixedDisplacement1">
			<dofs>x</dofs>
		</bc>
		<bc name="FixedDisplacement2" type="fix" node_set="@surface:FixedDisplacement2">
			<dofs>y</dofs>
		</bc>
		<bc name="FixedDisplacement3" type="fix" node_set="@surface:FixedDisplacement3">
			<dofs>z</dofs>
		</bc>
	</Boundary>
	<Step>
		<step id="1" name="Step1">
			<Control>
				<analysis>STATIC</analysis>
				<time_steps>21</time_steps>
				<step_size>0.05</step_size>
				<solver>
					<max_refs>15</max_refs>
					<max_ups>2</max_ups>
					<diverge_reform>1</diverge_reform>
					<reform_each_time_step>1</reform_each_time_step>
					<dtol>0.01</dtol>
					<etol>0.01</etol>
					<rtol>0</rtol>
					<lstol>0.9</lstol>
					<min_residual>1e-14</min_residual>
					<qnmethod>BFGS</qnmethod>
					<rhoi>0</rhoi>
				</solver>
				<time_stepper>
					<dtmin>0.005</dtmin>
					<dtmax>0.05</dtmax>
					<max_retries>10</max_retries>
					<opt_iter>10</opt_iter>
				</time_stepper>
			</Control>
			<Boundary>
				<bc name="PrescribedDisplacement1" type="prescribe" node_set="@surface:PrescribedDisplacement1">
					<dof>x</dof>
					<scale lc="1">0.0015</scale>
					<relative>0</relative>
				</bc>
				<bc name="PrescribedDisplacement2" type="prescribe" node_set="@surface:PrescribedDisplacement2">
					<dof>y</dof>
					<scale lc="2">0.0015</scale>
					<relative>0</relative>
				</bc>
			</Boundary>
		</step>
	</Step>
	<LoadData>
		<load_controller id="1" type="loadcurve">
			<interpolate>LINEAR</interpolate>
			<points>
				<point>0,0</point>
				<point>0.05,0</point>
				<point>1.05,1</point>
			</points>
		</load_controller>
		<load_controller id="2" type="loadcurve">
			<interpolate>LINEAR</interpolate>
			<points>
				<point>0,0</point>
				<point>0.05,0</point>
				<point>1.05,1</point>
			</points>
		</load_controller>
	</LoadData>
	<Output>
		<plotfile type="febio">
			<var type="displacement"/>
			<var type="relative volume"/>
			<var type="stress"/>
		</plotfile>
	</Output>
</febio_spec>

